# Title
# Created by GaussView 6.0.16
#

#
#

@<TRIPOS>MOLECULE
Molecule Name
2188 1475
SMALL
NO_CHARGES


@<TRIPOS>ATOM
1 H1    -5.3040    -8.3070    -0.1220 H
2 C2    -5.3040    -7.2170    -0.1220 C
3 H3    -5.8170    -6.8530     0.7680 H
4 H4    -5.8170    -6.8530    -1.0120 H
5 C5    -3.8760    -6.6660    -0.1220 C
6 O6    -2.9130    -7.4290    -0.1220 O
7 N7    -3.7480    -5.3370    -0.1220 N
8 H8    -4.5700    -4.7500    -0.1220 H
9 C9    -2.4500    -4.6930    -0.1220 C
10 H10    -1.8960    -4.9910     0.7680 H
11 C11    -1.6420    -5.0860    -1.3540 C
12 H12    -2.1800    -4.7850    -2.2530 H
13 H13    -0.6730    -4.5880    -1.3280 H
14 H14    -1.4950    -6.1660    -1.3630 H
15 C15    -2.5910    -3.1770    -0.1220 C
16 O16    -3.7030    -2.6540    -0.1220 O
17 N17    -1.4580    -2.4720    -0.1220 N
18 H18    -0.5670    -2.9470    -0.1220 H
19 C19    -1.4580    -1.0230    -0.1220 C
20 H20    -1.9710    -0.6590    -1.0120 H
21 C21    -2.1690    -0.4740     1.1100 C
22 H22    -1.6600    -0.8220     2.0090 H
23 H23    -2.1540     0.6160     1.0840 H
24 H24    -3.2020    -0.8220     1.1190 H
25 C25    -0.0380    -0.4750    -0.1220 C
26 O26     0.9260    -1.2380    -0.1220 O
27 N27     0.0900     0.8540    -0.1220 N
28 H28    -0.7320     1.4410    -0.1220 H
29 C29     1.3880     1.4980    -0.1220 C
30 H30     1.9430     1.2000     0.7680 H
31 C31     2.1960     1.1050    -1.3540 C
32 H32     1.6580     1.4060    -2.2530 H
33 H33     3.1660     1.6030    -1.3280 H
34 H34     2.3440     0.0250    -1.3630 H
35 C35     1.2480     3.0140    -0.1220 C
36 O36     0.1360     3.5370    -0.1220 O
37 N37     2.3810     3.7190    -0.1220 N
38 H38     3.2720     3.2440    -0.1220 H
39 C39     2.3810     5.1680    -0.1220 C
40 H40     1.8670     5.5320    -1.0120 H
41 C41     1.6700     5.7170     1.1100 C
42 H42     2.1780     5.3690     2.0090 H
43 H43     1.6850     6.8070     1.0840 H
44 H44     0.6370     5.3690     1.1190 H
45 C45     3.8010     5.7160    -0.1220 C
46 O46     4.7640     4.9530    -0.1220 O
47 N47     3.9290     7.0450    -0.1220 N
48 H48     3.1070     7.6320    -0.1220 H
49 C49     5.2270     7.6890    -0.1220 C
50 H50     6.0100     6.9310    -0.1220 H
51 H51     5.3240     8.3110    -1.0120 H
52 H52     5.3240     8.3110     0.7680 H
53 O53    12.1620     8.5420     7.6580 O
54 H54    12.0810     7.6270     7.3870 H
55 H55    11.7490     9.0380     6.9520 H
56 O56    10.2940    10.3200     9.5390 O
57 H57     9.5180     9.8400     9.8290 H
58 H58    10.9450     9.6400     9.3650 H
59 O59     4.3100    10.6320    10.4170 O
60 H60     3.4790    10.3760    10.8160 H
61 H61     4.9190    10.7030    11.1530 H
62 O62    14.3150    14.7260     8.3190 O
63 H63    13.8530    13.9540     8.6480 H
64 H64    15.1270    14.7520     8.8240 H
65 O65     4.2910    14.6660    10.6130 O
66 H66     4.5930    13.7750    10.4340 H
67 H67     5.0350    15.2230    10.3850 H
68 O68     0.6830     8.1920    10.0850 O
69 H69     1.2550     7.4250    10.0850 H
70 H70     0.6830     8.4910     9.1760 H
71 O71    10.5410    17.0110     7.9400 O
72 H72     9.9220    17.4670     7.3690 H
73 H73    11.3960    17.1670     7.5390 H
74 O74     9.7350    12.9950     9.5460 O
75 H75     9.6660    12.0540     9.3850 H
76 H76    10.4970    13.0850    10.1190 H
77 O77    10.7650     5.8020     9.7730 O
78 H78    11.1420     4.9300     9.6610 H
79 H79    10.6670     6.1380     8.8820 H
80 O80     4.8960     4.1750     5.2350 O
81 H81     5.0020     5.0750     5.5420 H
82 H82     3.9850     4.1270     4.9440 H
83 O83    14.5480     3.2970     6.7060 O
84 H84    15.3690     2.8070     6.7490 H
85 H85    14.5810     3.8870     7.4590 H
86 O86     2.5440     6.0970    10.4800 O
87 H87     3.2250     6.3610    11.0990 H
88 H88     2.2290     5.2570    10.8140 H
89 O89     6.7370     7.1440     9.5670 O
90 H90     7.2440     7.6420    10.2080 H
91 H91     7.2680     6.3670     9.3910 H
92 O92    11.4070    11.8950     5.3330 O
93 H93    10.7890    12.3600     4.7690 H
94 H94    11.9200    12.5880     5.7500 H
95 O95    14.7840     5.2370     9.4790 O
96 H96    14.0790     5.5260    10.0590 H
97 H97    15.1450     6.0470     9.1190 H
98 O98     0.7760    12.5810     2.7070 O
99 H99     0.3980    13.0700     1.9750 H
100 H100     1.0330    13.2540     3.3370 H
101 O101     8.3850     0.9830     8.1650 O
102 H102     8.6920     0.4270     7.4490 H
103 H103     7.4550     1.1170     7.9830 H
104 O104    13.9360    16.6990    10.4560 O
105 H105    13.9490    16.2960     9.5880 H
106 H106    13.3840    17.4740    10.3520 H
107 O107    15.2310    13.4210     5.5450 O
108 H108    15.1200    12.4780     5.6700 H
109 H109    15.2270    13.7830     6.4310 H
110 O110    10.7730     9.0480     4.9010 O
111 H111     9.8460     8.9810     5.1300 H
112 H112    10.9250     9.9860     4.7870 H
113 O113    10.7590     5.3190     1.8980 O
114 H114     9.8200     5.4810     1.9830 H
115 H115    11.0780     6.0380     1.3520 H
116 O116    14.8020    10.6100     5.4050 O
117 H117    14.1840    10.2720     4.7570 H
118 H118    14.7850     9.9660     6.1130 H
119 O119     6.3780     9.5740     7.6830 O
120 H120     5.9740     8.8620     7.1880 H
121 H121     6.4650     9.2290     8.5720 H
122 O122     6.8460    13.2610     9.8470 O
123 H123     6.5490    12.6550     9.1680 H
124 H124     7.7960    13.2980     9.7360 H
125 O125    12.9790     9.8480     2.4120 O
126 H126    13.4180     9.0100     2.2660 H
127 H127    13.6920    10.4810     2.4980 H
128 O128    11.0880    14.7880     6.3800 O
129 H129    11.5280    15.5300     5.9660 H
130 H130    11.0270    15.0310     7.3040 H
131 O131     3.0790     8.4690     5.1840 O
132 H132     2.9580     9.1950     4.5720 H
133 H133     2.7690     7.6990     4.7070 H
134 O134     0.7170    11.6400    10.9910 O
135 H135     0.7950    11.7750    10.0460 H
136 H136     1.3310    10.9320    11.1840 H
137 O137     1.9620    13.3400     7.4010 O
138 H138     1.5550    13.4810     6.5470 H
139 H139     2.8530    13.0560     7.1990 H
140 O140    13.4580    15.2840     2.2960 O
141 H141    12.7640    15.2810     1.6370 H
142 H142    14.2000    14.8590     1.8660 H
143 O143    13.0230    16.9100     6.3710 O
144 H144    13.4790    16.1290     6.6850 H
145 H145    13.3620    17.6200     6.9150 H
146 O146     5.5450     1.8120     8.5660 O
147 H147     5.1020     2.5930     8.2350 H
148 H148     6.1040     2.1350     9.2730 H
149 O149     8.6610     1.4330     3.4470 O
150 H150     8.0360     1.4290     4.1720 H
151 H151     8.5740     0.5660     3.0500 H
152 O152     7.5830     2.3570    10.4250 O
153 H153     7.8800     3.2630    10.3440 H
154 H154     8.1310     1.8690     9.8110 H
155 O155     5.3370     6.9350     6.2940 O
156 H156     5.1110     6.7190     7.1990 H
157 H157     4.5560     7.3680     5.9490 H
158 O158    12.5660     6.9420     4.8930 O
159 H159    11.9670     7.6650     4.7100 H
160 H160    13.1140     6.8790     4.1110 H
161 O161    11.1730     5.5780     6.9240 O
162 H162    11.5660     5.8950     6.1110 H
163 H163    11.5340     4.6990     7.0380 H
164 O164     0.2090     2.1680     9.1470 O
165 H165    -0.0800     2.7380     9.8590 H
166 H166     0.9540     1.6890     9.5100 H
167 O167    11.7580     8.1690    11.0190 O
168 H168    11.0260     8.6770    11.3680 H
169 H169    11.3610     7.3520    10.7180 H
170 O170     8.1960     4.8440     9.4240 O
171 H171     8.2000     4.4030     8.5750 H
172 H172     9.0910     5.1660     9.5310 H
173 O173     4.0460     4.7270     8.3840 O
174 H174     3.7060     5.2040     9.1400 H
175 H175     3.2840     4.2730     8.0240 H
176 O176     8.2580     5.8450     2.4150 O
177 H177     8.3790     5.8040     3.3630 H
178 H178     7.8730     6.7080     2.2590 H
179 O179    12.2210     3.6220    10.4310 O
180 H180    12.2380     4.0730    11.2750 H
181 H181    11.9720     2.7230    10.6450 H
182 O182     1.3610     3.6490     7.3000 O
183 H183     1.0760     3.2840     8.1380 H
184 H184     1.2990     2.9170     6.6860 H
185 O185     4.8150    12.1510     4.0860 O
186 H186     4.0410    11.6110     3.9260 H
187 H187     5.5440    11.6320     3.7480 H
188 O188    11.0350     2.5420     4.0210 O
189 H189    10.2210     2.0430     3.9460 H
190 H190    10.8410     3.3810     3.6050 H
191 O191    13.7500     6.9130     2.3180 O
192 H192    14.6380     7.2250     2.1430 H
193 H193    13.7200     6.0410     1.9260 H
194 O194     4.8590    11.8190     7.7240 O
195 H195     5.3770    11.0160     7.6690 H
196 H196     4.4070    11.7570     8.5650 H
197 O197     9.7460    13.0860     2.9960 O
198 H198    10.0870    13.8300     2.5010 H
199 H199     8.9170    13.3990     3.3590 H
200 O200    12.6280    12.4070     8.3610 O
201 H201    12.9810    11.8100     7.7010 H
202 H202    11.7450    12.0820     8.5320 H
203 O203     8.7150    13.1670     5.7680 O
204 H204     9.4020    13.7140     6.1490 H
205 H205     7.9280    13.7110     5.8030 H
206 O206     8.0170    10.1720     5.3810 O
207 H207     8.4740    10.9820     5.6070 H
208 H208     7.6660     9.8540     6.2120 H
209 O209     3.9190     0.5160     5.8530 O
210 H210     3.7900     0.5070     6.8010 H
211 H211     3.0950     0.8540     5.5020 H
212 O212    11.5940    13.6860    11.3270 O
213 H213    12.2360    12.9850    11.4410 H
214 H214    12.1190    14.4660    11.1470 H
215 O215     7.2380    15.3800     2.6430 O
216 H216     7.2290    16.1130     2.0280 H
217 H217     6.3180    15.1340     2.7360 H
218 O218     2.8390    10.6020     3.3880 O
219 H219     2.2310    11.3420     3.3970 H
220 H220     3.3140    10.6920     2.5620 H
221 O221    10.2240    15.4430     1.3060 O
222 H222    10.3250    15.2400     0.3760 H
223 H223     9.3240    15.1890     1.5110 H
224 O224     7.7460     6.0010     5.2880 O
225 H225     7.0380     6.4700     5.7290 H
226 H226     8.0310     5.3430     5.9230 H
227 O227    11.7780     2.7260     6.7280 O
228 H228    11.6550     2.7450     5.7790 H
229 H229    12.7260     2.7740     6.8480 H
230 O230    14.8710     8.8810     7.5760 O
231 H231    13.9300     8.8960     7.7510 H
232 H232    15.1850     8.0950     8.0220 H
233 O233     1.2300    14.2120     4.7980 O
234 H234     0.3040    14.4540     4.7880 H
235 H235     1.6950    15.0400     4.6760 H
236 O236     7.4550    17.3180     0.7460 O
237 H237     8.2480    17.6070     0.2940 H
238 H238     6.9360    16.8870     0.0670 H
239 O239     7.9730    12.5380     0.6100 O
240 H240     7.8680    11.9240     1.3360 H
241 H241     7.8060    12.0150    -0.1730 H
242 O242    11.2140    11.6000     1.2140 O
243 H243    10.6650    12.0470     1.8590 H
244 H244    11.8350    11.0950     1.7380 H
245 O245     6.8810    10.5590     3.1110 O
246 H246     7.3030    10.3930     3.9540 H
247 H247     7.0060     9.7490     2.6170 H
248 O248     9.3940     9.5830     0.3590 O
249 H249     9.9140     8.8680    -0.0070 H
250 H250    10.0410    10.2220     0.6590 H
251 O251    13.2560     1.4440     2.5860 O
252 H252    13.5360     0.6000     2.9410 H
253 H253    12.4820     1.6760     3.0990 H
254 O254     7.7940     2.6760     1.0300 O
255 H255     7.4460     1.9990     0.4500 H
256 H256     7.9950     2.2150     1.8450 H
257 O257     3.5980    13.0370     0.8780 O
258 H258     4.0360    13.5800     1.5330 H
259 H259     4.0830    12.2120     0.8870 H
260 O260     0.8130    15.8260     8.3300 O
261 H261     1.1430    14.9580     8.0970 H
262 H262     1.2420    16.0320     9.1600 H
263 O263     5.4090    14.1570     5.9900 O
264 H264     5.1090    14.0330     6.8900 H
265 H265     5.3030    13.2980     5.5810 H
266 O266     1.1340     9.2050     7.4270 O
267 H267     0.4790     8.9360     6.7830 H
268 H268     1.9720     9.0960     6.9770 H
269 O269    14.0830     3.9990     1.6490 O
270 H270    14.5020     3.8120     0.8080 H
271 H271    13.7770     3.1470     1.9590 H
272 O272     2.2270     0.7760    10.2210 O
273 H273     2.8750     0.2260     9.7810 H
274 H274     2.6480     1.0300    11.0430 H
275 O275     6.6620    16.6300     9.9850 O
276 H276     7.1780    16.0190     9.4590 H
277 H277     7.3110    17.1330    10.4760 H
278 O278     9.4010    17.5210    10.8110 O
279 H279     9.6890    17.2660     9.9350 H
280 H280     9.9130    16.9690    11.4020 H
281 O281     1.9630     1.5650     3.9120 O
282 H282     2.7210     1.6780     3.3390 H
283 H283     1.5010     2.4020     3.8670 H
284 O284     8.5040     3.6790     6.9030 O
285 H285     7.6920     3.3040     6.5620 H
286 H286     9.0080     2.9230     7.2050 H
287 O287    13.0070     0.3430     8.1410 O
288 H288    13.6100     0.9150     8.6160 H
289 H289    12.2660     0.9070     7.9180 H
290 O290     2.9460    16.4260     3.8540 O
291 H291     2.4210    16.8070     3.1500 H
292 H292     2.8710    17.0520     4.5750 H
293 O293     6.5290     1.8290     5.5070 O
294 H294     5.8990     1.1270     5.6740 H
295 H295     5.9900     2.5890     5.2910 H
296 O296     4.7070    14.4910     2.7340 O
297 H297     4.0780    14.9600     3.2820 H
298 H298     4.8220    13.6460     3.1680 H
299 O299    10.2940    10.3200    -9.2350 O
300 H300     9.5180     9.8400    -8.9450 H
301 H301    10.9450     9.6400    -9.4090 H
302 O302     4.3100    10.6320    -8.3580 O
303 H303     3.4790    10.3760    -7.9580 H
304 H304     4.9190    10.7030    -7.6220 H
305 O305    14.3150    14.7260   -10.4550 O
306 H306    13.8530    13.9540   -10.1260 H
307 H307    15.1270    14.7520    -9.9500 H
308 O308     4.2910    14.6660    -8.1620 O
309 H309     4.5930    13.7750    -8.3410 H
310 H310     5.0350    15.2230    -8.3900 H
311 O311     0.6830     8.1920    -8.6890 O
312 H312     1.2550     7.4250    -8.6890 H
313 H313     0.6830     8.4910    -9.5990 H
314 O314    10.5410    17.0110   -10.8350 O
315 H315     9.9220    17.4670   -11.4050 H
316 H316    11.3960    17.1670   -11.2360 H
317 O317     9.7350    12.9950    -9.2280 O
318 H318     9.6660    12.0540    -9.3890 H
319 H319    10.4970    13.0850    -8.6560 H
320 O320     1.9250     3.6010    -6.9020 O
321 H321     1.7460     2.7030    -6.6220 H
322 H322     1.5230     4.1480    -6.2280 H
323 O323    10.7650     5.8020    -9.0010 O
324 H324    11.1420     4.9300    -9.1140 H
325 H325    10.6670     6.1380    -9.8920 H
326 O326     2.5440     6.0970    -8.2940 O
327 H327     3.2250     6.3610    -7.6750 H
328 H328     2.2290     5.2570    -7.9600 H
329 O329     6.7370     7.1440    -9.2070 O
330 H330     7.2440     7.6420    -8.5660 H
331 H331     7.2680     6.3670    -9.3830 H
332 O332     5.0200     1.7830    -4.9410 O
333 H333     5.0220     2.3010    -5.7460 H
334 H334     4.1910     1.3060    -4.9640 H
335 O335     6.2700    11.4230    -6.7630 O
336 H336     5.9370    12.0500    -6.1210 H
337 H337     6.4470    11.9490    -7.5430 H
338 O338    14.7840     5.2370    -9.2960 O
339 H339    14.0790     5.5260    -8.7150 H
340 H340    15.1450     6.0470    -9.6560 H
341 O341     4.7020     3.4940    -6.9340 O
342 H342     5.0430     4.3390    -7.2280 H
343 H343     3.7630     3.6430    -6.8170 H
344 O344     5.4820    13.3910    -4.9480 O
345 H345     6.1000    14.0660    -5.2300 H
346 H346     4.6220    13.8000    -5.0400 H
347 O347     8.3850     0.9830   -10.6090 O
348 H348     8.6920     0.4270   -11.3260 H
349 H349     7.4550     1.1170   -10.7920 H
350 O350    13.9360    16.6990    -8.3180 O
351 H351    13.9490    16.2960    -9.1860 H
352 H352    13.3840    17.4740    -8.4220 H
353 O353    13.3350    11.6020    -6.9900 O
354 H354    13.7510    11.3880    -7.8250 H
355 H355    14.0590    11.8600    -6.4190 H
356 O356    14.2450     6.7880    -5.9530 O
357 H357    13.8320     7.6130    -5.6990 H
358 H358    13.5130     6.2030    -6.1450 H
359 O359     6.3780     9.5740   -11.0910 O
360 H360     5.9740     8.8620   -11.5870 H
361 H361     6.4650     9.2290   -10.2020 H
362 O362     6.8460    13.2610    -8.9270 O
363 H363     6.5490    12.6550    -9.6060 H
364 H364     7.7960    13.2980    -9.0380 H
365 O365     5.0910     6.3480    -7.3110 O
366 H366     5.6430     6.4580    -8.0860 H
367 H367     5.6050     6.7220    -6.5960 H
368 O368    14.9350    16.8340    -5.2650 O
369 H369    14.4580    17.6410    -5.4580 H
370 H370    14.2510    16.1820    -5.1120 H
371 O371     5.9380    12.9990    -2.2760 O
372 H372     5.0410    13.2230    -2.0290 H
373 H373     5.9640    13.1220    -3.2250 H
374 O374     4.7650     9.8700    -3.7010 O
375 H375     4.6260    10.7430    -3.3320 H
376 H376     3.8840     9.5280    -3.8460 H
377 O377     6.5630    15.8120    -1.4920 O
378 H378     6.5350    16.2170    -2.3590 H
379 H379     6.4000    14.8830    -1.6550 H
380 O380     0.7170    11.6400    -7.7840 O
381 H381     0.7950    11.7750    -8.7280 H
382 H382     1.3310    10.9320    -7.5910 H
383 O383     0.7730    12.6810    -5.2440 O
384 H384     0.9360    12.2120    -6.0620 H
385 H385     1.2380    12.1740    -4.5790 H
386 O386     5.5450     1.8120   -10.2080 O
387 H387     5.1020     2.5930   -10.5400 H
388 H388     6.1040     2.1350    -9.5010 H
389 O389     9.8320     4.6790    -4.6050 O
390 H390     9.3700     4.8870    -3.7930 H
391 H391     9.4300     3.8650    -4.9070 H
392 O392    14.8330     5.9000    -3.4750 O
393 H393    13.9820     5.6000    -3.1540 H
394 H394    14.6730     6.1440    -4.3860 H
395 O395    11.9270     7.4000    -1.3750 O
396 H396    12.2530     6.5660    -1.7150 H
397 H397    12.7160     7.9230    -1.2270 H
398 O398     7.5830     2.3570    -8.3490 O
399 H399     7.8800     3.2630    -8.4300 H
400 H400     8.1310     1.8690    -8.9630 H
401 O401     9.4820     4.3290    -0.5910 O
402 H402     8.7920     4.1360     0.0440 H
403 H403    10.2250     4.6120    -0.0580 H
404 O404     0.2090     2.1680    -9.6280 O
405 H405    -0.0800     2.7380    -8.9150 H
406 H406     0.9540     1.6890    -9.2640 H
407 O407    11.7580     8.1690    -7.7550 O
408 H408    11.0260     8.6770    -7.4060 H
409 H409    11.3610     7.3520    -8.0570 H
410 O410     8.1960     4.8440    -9.3500 O
411 H411     8.2000     4.4030   -10.2000 H
412 H412     9.0910     5.1660    -9.2430 H
413 O413     4.0460     4.7270   -10.3910 O
414 H414     3.7060     5.2040    -9.6340 H
415 H415     3.2840     4.2730   -10.7510 H
416 O416    12.2210     3.6220    -8.3430 O
417 H417    12.2380     4.0730    -7.4990 H
418 H418    11.9720     2.7230    -8.1300 H
419 O419     2.3470    12.0570    -3.0850 O
420 H420     1.9630    11.4160    -2.4860 H
421 H421     2.6580    12.7600    -2.5150 H
422 O422     8.4970     8.9040    -7.6040 O
423 H423     8.8640     8.4300    -6.8580 H
424 H424     8.3070     9.7780    -7.2630 H
425 O425     6.2870     7.9450    -5.2850 O
426 H426     5.9820     8.8240    -5.0600 H
427 H427     7.2410     8.0050    -5.2500 H
428 O428    10.9560    11.2190    -3.0090 O
429 H429    10.8890    10.2980    -3.2630 H
430 H430    10.3260    11.3160    -2.2950 H
431 O431     4.8590    11.8190   -11.0510 O
432 H432     5.3770    11.0160   -11.1050 H
433 H433     4.4070    11.7570   -10.2090 H
434 O434     2.3430     8.7850    -4.1380 O
435 H435     1.9850     9.4510    -3.5510 H
436 H436     2.0490     7.9540    -3.7670 H
437 O437    10.8870    14.0410    -3.2590 O
438 H438    10.9020    13.1090    -3.4770 H
439 H439    10.1800    14.1270    -2.6200 H
440 O440    12.6280    12.4070   -10.4130 O
441 H441    12.9810    11.8100   -11.0730 H
442 H442    11.7450    12.0820   -10.2430 H
443 O443    10.3210    15.6820    -6.1650 O
444 H444    10.9650    15.8880    -5.4870 H
445 H445    10.6840    14.9210    -6.6180 H
446 O446    11.5940    13.6860    -7.4470 O
447 H447    12.2360    12.9850    -7.3340 H
448 H448    12.1190    14.4660    -7.6270 H
449 O449    13.3680    14.4850    -4.2430 O
450 H450    13.7030    15.0720    -3.5650 H
451 H451    12.4480    14.3540    -4.0130 H
452 O452     1.2050    16.2630    -2.4740 O
453 H453     1.3140    15.3220    -2.6150 H
454 H454     0.5530    16.5280    -3.1230 H
455 O455     9.1970    14.5340    -1.0740 O
456 H456     8.8760    13.8150    -0.5300 H
457 H457     8.5220    15.2100    -1.0010 H
458 O458    12.4120     4.7670    -5.7110 O
459 H459    12.7800     3.9460    -5.3830 H
460 H460    11.5520     4.8270    -5.2950 H
461 O461     9.3720     7.4210    -5.4870 O
462 H462     9.8710     7.8950    -4.8220 H
463 H463     9.5140     6.4970    -5.2800 H
464 O464    14.8710     8.8810   -11.1980 O
465 H465    13.9300     8.8960   -11.0230 H
466 H466    15.1850     8.0950   -10.7520 H
467 O467     3.3510    17.3300    -0.6620 O
468 H468     4.1520    17.6510    -0.2490 H
469 H469     2.8360    16.9690     0.0600 H
470 O470    12.1880    13.4380    -0.7150 O
471 H471    11.5810    13.4610    -1.4550 H
472 H472    11.8830    12.7060    -0.1780 H
473 O473     1.0710     9.8170    -1.7190 O
474 H474     1.5750     9.2380    -1.1470 H
475 H475     0.3320    10.1010    -1.1810 H
476 O476     8.1250    11.2240    -2.1850 O
477 H477     7.3590    11.7930    -2.2700 H
478 H478     8.3060    10.9320    -3.0780 H
479 O479    13.9420    11.0060    -3.0920 O
480 H480    14.3560    11.1610    -2.2430 H
481 H481    13.0070    11.1320    -2.9300 H
482 O482    14.4140     8.3460    -1.0880 O
483 H483    14.9960     7.5910    -1.1760 H
484 H484    14.5900     8.8760    -1.8650 H
485 O485     8.2970     2.0630    -5.7440 O
486 H486     7.8490     2.0850    -6.5890 H
487 H487     7.6640     1.6650    -5.1470 H
488 O488     8.7030    10.9580    -5.1230 O
489 H489     9.1220    11.8010    -5.2950 H
490 H490     7.7840    11.0950    -5.3520 H
491 O491    11.0390     8.6900    -3.7390 O
492 H492    11.1590     8.0940    -2.9990 H
493 H493    11.8990     8.7270    -4.1590 H
494 O494    13.3780     9.2430    -5.1630 O
495 H495    12.8520     9.7680    -5.7660 H
496 H496    13.7210     9.8760    -4.5320 H
497 O497     7.8060     5.2320    -2.4810 O
498 H498     8.3960     4.9230    -1.7930 H
499 H499     6.9880     4.7600    -2.3250 H
500 O500    12.6260     4.8480    -2.2480 O
501 H501    11.9370     4.1870    -2.3130 H
502 H502    13.3460     4.4020    -1.8030 H
503 O503     0.8130    15.8260   -10.4450 O
504 H504     1.1430    14.9580   -10.6770 H
505 H505     1.2420    16.0320    -9.6140 H
506 O506     1.3020    16.6930    -7.7070 O
507 H507     0.8650    16.8730    -6.8740 H
508 H508     1.8700    17.4510    -7.8480 H
509 O509     2.1720     9.5900    -6.8070 O
510 H510     2.5390     9.5030    -5.9280 H
511 H511     1.6030     8.8270    -6.9070 H
512 O512     2.2270     0.7760    -8.5530 O
513 H513     2.8750     0.2260    -8.9940 H
514 H514     2.6480     1.0300    -7.7320 H
515 O515     1.9810     0.9320    -5.8110 O
516 H516     1.6320     1.3880    -5.0450 H
517 H517     1.6490     0.0370    -5.7280 H
518 O518     3.5870    14.1040    -1.6450 O
519 H519     3.5440    13.7330    -0.7640 H
520 H520     3.7180    15.0410    -1.5050 H
521 O521     7.2880    15.6600    -6.0440 O
522 H522     7.0470    15.9270    -6.9310 H
523 H523     8.2280    15.8300    -5.9890 H
524 O524     9.4930     2.1230    -2.2890 O
525 H525     9.4320     2.7150    -1.5390 H
526 H526    10.4330     2.0150    -2.4340 H
527 O527    12.1310     1.7800    -2.6490 O
528 H528    12.7450     2.0980    -3.3110 H
529 H529    12.6760     1.2950    -2.0300 H
530 O530     3.4260    17.0500    -4.5260 O
531 H531     2.8320    16.9180    -3.7870 H
532 H532     3.4180    16.2140    -4.9910 H
533 O533    12.8710     0.3430    -6.3230 O
534 H534    11.9970     0.6770    -6.5250 H
535 H535    12.7620    -0.1300    -5.4970 H
536 O536    13.7790     2.5500    -4.9380 O
537 H537    13.4500     1.7350    -5.3180 H
538 H538    14.7270     2.5070    -5.0620 H
539 O539     3.0570    14.4160    -5.5750 O
540 H540     2.3300    13.7960    -5.6420 H
541 H541     3.1180    14.8100    -6.4450 H
542 O542     6.6620    16.6300    -8.7900 O
543 H543     7.1780    16.0190    -9.3150 H
544 H544     7.3110    17.1330    -8.2990 H
545 O545     9.4010    17.5210    -7.9630 O
546 H546     9.6890    17.2660    -8.8400 H
547 H547     9.9130    16.9690    -7.3720 H
548 O548    10.6190     1.2600    -7.3830 O
549 H549     9.8360     1.7350    -7.1040 H
550 H550    10.3250     0.3560    -7.4920 H
551 O551    13.0070     0.3430   -10.6330 O
552 H552    13.6100     0.9150   -10.1590 H
553 H553    12.2660     0.9070   -10.8560 H
554 O554     6.6550     1.1070    -0.8320 O
555 H555     6.3730     1.6100    -1.5960 H
556 H556     7.0370     0.3090    -1.1980 H
557 O557    13.2560     0.5220    -0.2540 O
558 H558    13.1430     0.8420     0.6410 H
559 H559    14.0730     0.9240    -0.5500 H
560 O560    12.1620   -10.2330     7.6580 O
561 H561    12.0810   -11.1470     7.3870 H
562 H562    11.7490    -9.7360     6.9520 H
563 O563    10.2940    -8.4550     9.5390 O
564 H564     9.5180    -8.9350     9.8290 H
565 H565    10.9450    -9.1340     9.3650 H
566 O566     4.3100    -8.1430    10.4170 O
567 H567     3.4790    -8.3980    10.8160 H
568 H568     4.9190    -8.0720    11.1530 H
569 O569    14.3150    -4.0490     8.3190 O
570 H570    13.8530    -4.8200     8.6480 H
571 H571    15.1270    -4.0220     8.8240 H
572 O572     4.2910    -4.1090    10.6130 O
573 H573     4.5930    -4.9990    10.4340 H
574 H574     5.0350    -3.5520    10.3850 H
575 O575     2.7200   -13.1830     4.2010 O
576 H576     1.8310   -12.8410     4.0990 H
577 H577     3.0040   -13.3830     3.3090 H
578 O578     0.6830   -10.5820    10.0850 O
579 H579     1.2550   -11.3500    10.0850 H
580 H580     0.6830   -10.2830     9.1760 H
581 O581    10.5410    -1.7630     7.9400 O
582 H582     9.9220    -1.3070     7.3690 H
583 H583    11.3960    -1.6080     7.5390 H
584 O584     9.7350    -5.7790     9.5460 O
585 H585     9.6660    -6.7200     9.3850 H
586 H586    10.4970    -5.6890    10.1190 H
587 O587    10.7650   -12.9720     9.7730 O
588 H588    11.1420   -13.8450     9.6610 H
589 H589    10.6670   -12.6360     8.8820 H
590 O590     4.8960   -14.5990     5.2350 O
591 H591     5.0020   -13.6990     5.5420 H
592 H592     3.9850   -14.6480     4.9440 H
593 O593    14.5480   -15.4770     6.7060 O
594 H594    15.3690   -15.9670     6.7490 H
595 H595    14.5810   -14.8870     7.4590 H
596 O596     2.5440   -12.6780    10.4800 O
597 H597     3.2250   -12.4140    11.0990 H
598 H598     2.2290   -13.5170    10.8140 H
599 O599     6.7370   -11.6310     9.5670 O
600 H600     7.2440   -11.1330    10.2080 H
601 H601     7.2680   -12.4070     9.3910 H
602 O602    11.4070    -6.8790     5.3330 O
603 H603    10.7890    -6.4140     4.7690 H
604 H604    11.9200    -6.1860     5.7500 H
605 O605    14.7840   -13.5370     9.4790 O
606 H606    14.0790   -13.2480    10.0590 H
607 H607    15.1450   -12.7270     9.1190 H
608 O608     0.7760    -6.1930     2.7070 O
609 H609     0.3980    -5.7050     1.9750 H
610 H610     1.0330    -5.5210     3.3370 H
611 O611    13.9360    -2.0750    10.4560 O
612 H612    13.9490    -2.4790     9.5880 H
613 H613    13.3840    -1.3000    10.3520 H
614 O614    15.2310    -5.3530     5.5450 O
615 H615    15.1200    -6.2960     5.6700 H
616 H616    15.2270    -4.9920     6.4310 H
617 O617    10.7730    -9.7270     4.9010 O
618 H618     9.8460    -9.7930     5.1300 H
619 H619    10.9250    -8.7890     4.7870 H
620 O620    10.7590   -13.4550     1.8980 O
621 H621     9.8200   -13.2940     1.9830 H
622 H622    11.0780   -12.7370     1.3520 H
623 O623    14.8020    -8.1650     5.4050 O
624 H624    14.1840    -8.5030     4.7570 H
625 H625    14.7850    -8.8090     6.1130 H
626 O626     6.3780    -9.2000     7.6830 O
627 H627     5.9740    -9.9130     7.1880 H
628 H628     6.4650    -9.5450     8.5720 H
629 O629     6.8460    -5.5140     9.8470 O
630 H630     6.5490    -6.1190     9.1680 H
631 H631     7.7960    -5.4760     9.7360 H
632 O632    12.9790    -8.9260     2.4120 O
633 H633    13.4180    -9.7640     2.2660 H
634 H634    13.6920    -8.2930     2.4980 H
635 O635    11.0880    -3.9860     6.3800 O
636 H636    11.5280    -3.2440     5.9660 H
637 H637    11.0270    -3.7440     7.3040 H
638 O638     3.0790   -10.3060     5.1840 O
639 H639     2.9580    -9.5800     4.5720 H
640 H640     2.7690   -11.0760     4.7070 H
641 O641     0.7170    -7.1340    10.9910 O
642 H642     0.7950    -6.9990    10.0460 H
643 H643     1.3310    -7.8430    11.1840 H
644 O644     1.9620    -5.4340     7.4010 O
645 H645     1.5550    -5.2930     6.5470 H
646 H646     2.8530    -5.7180     7.1990 H
647 O647    13.7550    -1.0000     3.7360 O
648 H648    13.5950    -1.2890     4.6350 H
649 H649    13.5900    -1.7760     3.2010 H
650 O650     6.2340    -1.2200     5.5140 O
651 H651     6.0580    -2.1360     5.3000 H
652 H652     5.3800    -0.8610     5.7530 H
653 O653    13.4580    -3.4910     2.2960 O
654 H654    12.7640    -3.4930     1.6370 H
655 H655    14.2000    -3.9150     1.8660 H
656 O656    13.0230    -1.8650     6.3710 O
657 H657    13.4790    -2.6460     6.6850 H
658 H658    13.3620    -1.1540     6.9150 H
659 O659     5.5450   -16.9620     8.5660 O
660 H660     5.1020   -16.1810     8.2350 H
661 H661     6.1040   -16.6390     9.2730 H
662 O662     7.5830   -16.4180    10.4250 O
663 H663     7.8800   -15.5110    10.3440 H
664 H664     8.1310   -16.9060     9.8110 H
665 O665     5.3370   -11.8390     6.2940 O
666 H666     5.1110   -12.0550     7.1990 H
667 H667     4.5560   -11.4060     5.9490 H
668 O668    12.5660   -11.8330     4.8930 O
669 H669    11.9670   -11.1090     4.7100 H
670 H670    13.1140   -11.8950     4.1110 H
671 O671    11.1730   -13.1960     6.9240 O
672 H672    11.5660   -12.8790     6.1110 H
673 H673    11.5340   -14.0750     7.0380 H
674 O674     0.2090   -16.6060     9.1470 O
675 H675    -0.0800   -16.0360     9.8590 H
676 H676     0.9540   -17.0860     9.5100 H
677 O677     0.3960   -12.6640     0.3570 O
678 H678     0.3140   -11.7210     0.4990 H
679 H679     0.0450   -12.8070    -0.5220 H
680 O680    11.7580   -10.6060    11.0190 O
681 H681    11.0260   -10.0970    11.3680 H
682 H682    11.3610   -11.4230    10.7180 H
683 O683     8.1960   -13.9300     9.4240 O
684 H684     8.2000   -14.3710     8.5750 H
685 H685     9.0910   -13.6090     9.5310 H
686 O686     4.0460   -14.0480     8.3840 O
687 H687     3.7060   -13.5700     9.1400 H
688 H688     3.2840   -14.5010     8.0240 H
689 O689     8.2580   -12.9290     2.4150 O
690 H690     8.3790   -12.9700     3.3630 H
691 H691     7.8730   -12.0670     2.2590 H
692 O692    12.2210   -15.1520    10.4310 O
693 H693    12.2380   -14.7010    11.2750 H
694 H694    11.9720   -16.0520    10.6450 H
695 O695     7.2700   -10.6190     1.8130 O
696 H696     6.7020   -11.0670     1.1870 H
697 H697     7.9790   -10.2600     1.2800 H
698 O698     1.3610   -15.1260     7.3000 O
699 H699     1.0760   -15.4900     8.1380 H
700 H700     1.2990   -15.8580     6.6860 H
701 O701     4.8150    -6.6230     4.0860 O
702 H702     4.0410    -7.1630     3.9260 H
703 H703     5.5440    -7.1420     3.7480 H
704 O704    11.0350   -16.2330     4.0210 O
705 H705    10.2210   -16.7320     3.9460 H
706 H706    10.8410   -15.3930     3.6050 H
707 O707    13.7500   -11.8610     2.3180 O
708 H708    14.6380   -11.5490     2.1430 H
709 H709    13.7200   -12.7340     1.9260 H
710 O710     4.8590    -6.9550     7.7240 O
711 H711     5.3770    -7.7580     7.6690 H
712 H712     4.4070    -7.0170     8.5650 H
713 O713     9.7460    -5.6880     2.9960 O
714 H714    10.0870    -4.9440     2.5010 H
715 H715     8.9170    -5.3750     3.3590 H
716 O716    12.6280    -6.3670     8.3610 O
717 H717    12.9810    -6.9640     7.7010 H
718 H718    11.7450    -6.6920     8.5320 H
719 O719     8.7150    -5.6070     5.7680 O
720 H720     9.4020    -5.0600     6.1490 H
721 H721     7.9280    -5.0630     5.8030 H
722 O722     0.8540    -9.9900     1.2600 O
723 H723     1.7230    -9.7070     1.5430 H
724 H724     0.3630    -9.1760     1.1450 H
725 O725     8.0170    -8.6030     5.3810 O
726 H726     8.4740    -7.7920     5.6070 H
727 H727     7.6660    -8.9200     6.2120 H
728 O728    11.5940    -5.0890    11.3270 O
729 H729    12.2360    -5.7890    11.4410 H
730 H730    12.1190    -4.3090    11.1470 H
731 O731     7.2380    -3.3940     2.6430 O
732 H732     7.2290    -2.6610     2.0280 H
733 H733     6.3180    -3.6410     2.7360 H
734 O734     2.8390    -8.1730     3.3880 O
735 H735     2.2310    -7.4330     3.3970 H
736 H736     3.3140    -8.0830     2.5620 H
737 O737    10.2240    -3.3310     1.3060 O
738 H738    10.3250    -3.5350     0.3760 H
739 H739     9.3240    -3.5850     1.5110 H
740 O740     7.7460   -12.7730     5.2880 O
741 H741     7.0380   -12.3040     5.7290 H
742 H742     8.0310   -13.4310     5.9230 H
743 O743    11.7780   -16.0480     6.7280 O
744 H744    11.6550   -16.0290     5.7790 H
745 H745    12.7260   -16.0000     6.8480 H
746 O746     8.8660    -0.8130     6.0000 O
747 H747     9.1200    -0.8500     5.0780 H
748 H748     7.9170    -0.9390     5.9930 H
749 O749     5.9500   -14.4650     2.6630 O
750 H750     6.7990   -14.0280     2.5970 H
751 H751     5.5830   -14.1530     3.4900 H
752 O752    14.8710    -9.8930     7.5760 O
753 H753    13.9300    -9.8780     7.7510 H
754 H754    15.1850   -10.6800     8.0220 H
755 O755     4.8490    -8.2110     1.1370 O
756 H756     5.6150    -8.3230     1.6990 H
757 H757     4.9270    -8.9080     0.4840 H
758 O758     3.5440   -10.7790     1.8200 O
759 H759     3.6240   -11.7260     1.9320 H
760 H760     4.4360   -10.4480     1.9260 H
761 O761     4.3450    -0.6290     8.9230 O
762 H762     5.0820    -1.1780     9.1940 H
763 H763     4.7290     0.2360     8.7840 H
764 O764     1.2300    -4.5620     4.7980 O
765 H765     0.3040    -4.3200     4.7880 H
766 H766     1.6950    -3.7350     4.6760 H
767 O767     7.4550    -1.4560     0.7460 O
768 H768     8.2480    -1.1670     0.2940 H
769 H769     6.9360    -1.8870     0.0670 H
770 O770     7.9730    -6.2360     0.6100 O
771 H771     7.8680    -6.8510     1.3360 H
772 H772     7.8060    -6.7590    -0.1730 H
773 O773    11.2140    -7.1740     1.2140 O
774 H774    10.6650    -6.7270     1.8590 H
775 H775    11.8350    -7.6790     1.7380 H
776 O776     6.8810    -8.2150     3.1110 O
777 H777     7.3030    -8.3810     3.9540 H
778 H778     7.0060    -9.0250     2.6170 H
779 O779     9.3940    -9.1910     0.3590 O
780 H780     9.9140    -9.9060    -0.0070 H
781 H781    10.0410    -8.5530     0.6590 H
782 O782     5.7770   -12.1420     0.0570 O
783 H783     5.5760   -13.0050     0.4180 H
784 H784     5.6060   -12.2280    -0.8810 H
785 O785     4.5750   -15.0410     0.0450 O
786 H786     4.8780   -15.0350    -0.8630 H
787 H787     5.3150   -15.3920     0.5410 H
788 O788     7.7940   -16.0980     1.0300 O
789 H789     7.4460   -16.7760     0.4500 H
790 H790     7.9950   -16.5590     1.8450 H
791 O791     9.9590    -1.1100     2.6490 O
792 H792    10.8540    -0.7710     2.6710 H
793 H793     9.9900    -1.8320     2.0210 H
794 O794     3.5980    -5.7370     0.8780 O
795 H795     4.0360    -5.1940     1.5330 H
796 H796     4.0830    -6.5630     0.8870 H
797 O797     0.8130    -2.9480     8.3300 O
798 H798     1.1430    -3.8160     8.0970 H
799 H799     1.2420    -2.7420     9.1600 H
800 O800     5.4090    -4.6170     5.9900 O
801 H801     5.1090    -4.7410     6.8900 H
802 H802     5.3030    -5.4770     5.5810 H
803 O803     1.1340    -9.5690     7.4270 O
804 H804     0.4790    -9.8380     6.7830 H
805 H805     1.9720    -9.6790     6.9770 H
806 O806    14.0830   -14.7750     1.6490 O
807 H807    14.5020   -14.9620     0.8080 H
808 H808    13.7770   -15.6270     1.9590 H
809 O809     0.3480   -12.3590     3.3690 O
810 H810    -0.5560   -12.0960     3.1940 H
811 H811     0.8320   -12.0880     2.5890 H
812 O812     2.8910   -13.3030     1.2790 O
813 H813     3.6000   -13.7240     0.7930 H
814 H814     2.1750   -13.2350     0.6470 H
815 O815     2.5380   -17.2490     0.3190 O
816 H816     3.2610   -16.7080     0.6370 H
817 H817     2.8110   -17.5230    -0.5570 H
818 O818     6.6620    -2.1440     9.9850 O
819 H819     7.1780    -2.7550     9.4590 H
820 H820     7.3110    -1.6410    10.4760 H
821 O821     9.4010    -1.2530    10.8110 O
822 H822     9.6890    -1.5080     9.9350 H
823 H823     9.9130    -1.8060    11.4020 H
824 O824     1.3400    -1.0410     6.4090 O
825 H825     1.1720    -1.6740     7.1070 H
826 H826     0.4740    -0.8350     6.0590 H
827 O827     1.9630   -17.2100     3.9120 O
828 H828     2.7210   -17.0970     3.3390 H
829 H829     1.5010   -16.3730     3.8670 H
830 O830     8.5040   -15.0960     6.9030 O
831 H831     7.6920   -15.4700     6.5620 H
832 H832     9.0080   -15.8510     7.2050 H
833 O833     2.9460    -2.3480     3.8540 O
834 H834     2.4210    -1.9670     3.1500 H
835 H835     2.8710    -1.7230     4.5750 H
836 O836     4.3350   -16.6830     2.4530 O
837 H837     4.8650   -17.4700     2.3230 H
838 H838     4.9680   -16.0040     2.6860 H
839 O839     6.5290   -16.9460     5.5070 O
840 H840     5.8990   -17.6470     5.6740 H
841 H841     5.9900   -16.1850     5.2910 H
842 O842     5.5460    -0.4000     2.7290 O
843 H843     6.2780    -0.6840     2.1820 H
844 H844     5.8050    -0.6380     3.6190 H
845 O845     4.7070    -4.2830     2.7340 O
846 H846     4.0780    -3.8150     3.2820 H
847 H847     4.8220    -5.1280     3.1680 H
848 O848    10.2940    -8.4550    -9.2350 O
849 H849     9.5180    -8.9350    -8.9450 H
850 H850    10.9450    -9.1340    -9.4090 H
851 O851     4.3100    -8.1430    -8.3580 O
852 H852     3.4790    -8.3980    -7.9580 H
853 H853     4.9190    -8.0720    -7.6220 H
854 O854    14.3150    -4.0490   -10.4550 O
855 H855    13.8530    -4.8200   -10.1260 H
856 H856    15.1270    -4.0220    -9.9500 H
857 O857     4.2910    -4.1090    -8.1620 O
858 H858     4.5930    -4.9990    -8.3410 H
859 H859     5.0350    -3.5520    -8.3900 H
860 O860     0.6830   -10.5820    -8.6890 O
861 H861     1.2550   -11.3500    -8.6890 H
862 H862     0.6830   -10.2830    -9.5990 H
863 O863    10.5410    -1.7630   -10.8350 O
864 H864     9.9220    -1.3070   -11.4050 H
865 H865    11.3960    -1.6080   -11.2360 H
866 O866     9.7350    -5.7790    -9.2280 O
867 H867     9.6660    -6.7200    -9.3890 H
868 H868    10.4970    -5.6890    -8.6560 H
869 O869     1.9250   -15.1740    -6.9020 O
870 H870     1.7460   -16.0710    -6.6220 H
871 H871     1.5230   -14.6260    -6.2280 H
872 O872    10.7650   -12.9720    -9.0010 O
873 H873    11.1420   -13.8450    -9.1140 H
874 H874    10.6670   -12.6360    -9.8920 H
875 O875     2.5440   -12.6780    -8.2940 O
876 H876     3.2250   -12.4140    -7.6750 H
877 H877     2.2290   -13.5170    -7.9600 H
878 O878     6.7370   -11.6310    -9.2070 O
879 H879     7.2440   -11.1330    -8.5660 H
880 H880     7.2680   -12.4070    -9.3830 H
881 O881     5.0200   -16.9910    -4.9410 O
882 H882     5.0220   -16.4740    -5.7460 H
883 H883     4.1910   -17.4680    -4.9640 H
884 O884     6.2700    -7.3510    -6.7630 O
885 H885     5.9370    -6.7250    -6.1210 H
886 H886     6.4470    -6.8250    -7.5430 H
887 O887    14.7840   -13.5370    -9.2960 O
888 H888    14.0790   -13.2480    -8.7150 H
889 H889    15.1450   -12.7270    -9.6560 H
890 O890     4.7020   -15.2800    -6.9340 O
891 H891     5.0430   -14.4360    -7.2280 H
892 H892     3.7630   -15.1320    -6.8170 H
893 O893     5.4820    -5.3830    -4.9480 O
894 H894     6.1000    -4.7080    -5.2300 H
895 H895     4.6220    -4.9750    -5.0400 H
896 O896    13.9360    -2.0750    -8.3180 O
897 H897    13.9490    -2.4790    -9.1860 H
898 H898    13.3840    -1.3000    -8.4220 H
899 O899    13.3350    -7.1720    -6.9900 O
900 H900    13.7510    -7.3860    -7.8250 H
901 H901    14.0590    -6.9150    -6.4190 H
902 O902    14.2450   -11.9860    -5.9530 O
903 H903    13.8320   -11.1610    -5.6990 H
904 H904    13.5130   -12.5720    -6.1450 H
905 O905     6.3780    -9.2000   -11.0910 O
906 H906     5.9740    -9.9130   -11.5870 H
907 H907     6.4650    -9.5450   -10.2020 H
908 O908     6.8460    -5.5140    -8.9270 O
909 H909     6.5490    -6.1190    -9.6060 H
910 H910     7.7960    -5.4760    -9.0380 H
911 O911     5.0910   -12.4260    -7.3110 O
912 H912     5.6430   -12.3160    -8.0860 H
913 H913     5.6050   -12.0520    -6.5960 H
914 O914    14.9350    -1.9400    -5.2650 O
915 H915    14.4580    -1.1330    -5.4580 H
916 H916    14.2510    -2.5930    -5.1120 H
917 O917     5.9380    -5.7750    -2.2760 O
918 H918     5.0410    -5.5510    -2.0290 H
919 H919     5.9640    -5.6520    -3.2250 H
920 O920     4.7650    -8.9040    -3.7010 O
921 H921     4.6260    -8.0320    -3.3320 H
922 H922     3.8840    -9.2470    -3.8460 H
923 O923     6.5630    -2.9620    -1.4920 O
924 H924     6.5350    -2.5580    -2.3590 H
925 H925     6.4000    -3.8910    -1.6550 H
926 O926     0.7170    -7.1340    -7.7840 O
927 H927     0.7950    -6.9990    -8.7280 H
928 H928     1.3310    -7.8430    -7.5910 H
929 O929    11.7800    -1.2850    -4.4660 O
930 H930    12.2940    -1.3740    -3.6640 H
931 H931    10.9370    -0.9390    -4.1730 H
932 O932     0.7730    -6.0930    -5.2440 O
933 H933     0.9360    -6.5620    -6.0620 H
934 H934     1.2380    -6.6010    -4.5790 H
935 O935     5.5450   -16.9620   -10.2080 O
936 H936     5.1020   -16.1810   -10.5400 H
937 H937     6.1040   -16.6390    -9.5010 H
938 O938     9.8320   -14.0950    -4.6050 O
939 H939     9.3700   -13.8870    -3.7930 H
940 H940     9.4300   -14.9100    -4.9070 H
941 O941    14.8330   -12.8750    -3.4750 O
942 H942    13.9820   -13.1740    -3.1540 H
943 H943    14.6730   -12.6300    -4.3860 H
944 O944    11.9270   -11.3740    -1.3750 O
945 H945    12.2530   -12.2080    -1.7150 H
946 H946    12.7160   -10.8520    -1.2270 H
947 O947     7.5830   -16.4180    -8.3490 O
948 H948     7.8800   -15.5110    -8.4300 H
949 H949     8.1310   -16.9060    -8.9630 H
950 O950     7.7760   -10.9400    -1.8140 O
951 H951     7.6810   -11.8810    -1.9640 H
952 H952     8.6200   -10.7190    -2.2090 H
953 O953     2.9070   -14.5290    -3.6610 O
954 H954     2.5140   -13.6820    -3.4530 H
955 H955     2.2190   -15.1660    -3.4700 H
956 O956     9.4820   -14.4460    -0.5910 O
957 H957     8.7920   -14.6380     0.0440 H
958 H958    10.2250   -14.1620    -0.0580 H
959 O959     0.2090   -16.6060    -9.6280 O
960 H960    -0.0800   -16.0360    -8.9150 H
961 H961     0.9540   -17.0860    -9.2640 H
962 O962    11.7580   -10.6060    -7.7550 O
963 H963    11.0260   -10.0970    -7.4060 H
964 H964    11.3610   -11.4230    -8.0570 H
965 O965     8.1960   -13.9300    -9.3500 O
966 H966     8.2000   -14.3710   -10.2000 H
967 H967     9.0910   -13.6090    -9.2430 H
968 O968     4.0460   -14.0480   -10.3910 O
969 H969     3.7060   -13.5700    -9.6340 H
970 H970     3.2840   -14.5010   -10.7510 H
971 O971    12.2210   -15.1520    -8.3430 O
972 H972    12.2380   -14.7010    -7.4990 H
973 H973    11.9720   -16.0520    -8.1300 H
974 O974     2.3470    -6.7180    -3.0850 O
975 H975     1.9630    -7.3580    -2.4860 H
976 H976     2.6580    -6.0140    -2.5150 H
977 O977     8.4970    -9.8700    -7.6040 O
978 H978     8.8640   -10.3440    -6.8580 H
979 H979     8.3070    -8.9960    -7.2630 H
980 O980     6.2870   -10.8290    -5.2850 O
981 H981     5.9820    -9.9500    -5.0600 H
982 H982     7.2410   -10.7690    -5.2500 H
983 O983    10.9560    -7.5560    -3.0090 O
984 H984    10.8890    -8.4760    -3.2630 H
985 H985    10.3260    -7.4580    -2.2950 H
986 O986     4.8590    -6.9550   -11.0510 O
987 H987     5.3770    -7.7580   -11.1050 H
988 H988     4.4070    -7.0170   -10.2090 H
989 O989     2.3430    -9.9890    -4.1380 O
990 H990     1.9850    -9.3240    -3.5510 H
991 H991     2.0490   -10.8210    -3.7670 H
992 O992     5.5440    -9.5310    -1.2540 O
993 H993     5.2440    -9.3850    -2.1510 H
994 H994     6.3160   -10.0900    -1.3470 H
995 O995    10.8870    -4.7340    -3.2590 O
996 H996    10.9020    -5.6660    -3.4770 H
997 H997    10.1800    -4.6480    -2.6200 H
998 O998    12.6280    -6.3670   -10.4130 O
999 H999    12.9810    -6.9640   -11.0730 H
1000 H1000    11.7450    -6.6920   -10.2430 H
1001 O1001    10.3210    -3.0920    -6.1650 O
1002 H1002    10.9650    -2.8860    -5.4870 H
1003 H1003    10.6840    -3.8530    -6.6180 H
1004 O1004    11.5940    -5.0890    -7.4470 O
1005 H1005    12.2360    -5.7890    -7.3340 H
1006 H1006    12.1190    -4.3090    -7.6270 H
1007 O1007    13.3680    -4.2890    -4.2430 O
1008 H1008    13.7030    -3.7030    -3.5650 H
1009 H1009    12.4480    -4.4200    -4.0130 H
1010 O1010     0.9180   -16.5000    -3.4610 O
1011 H1011     0.2040   -16.3000    -2.8560 H
1012 H1012     1.3370   -17.2760    -3.0890 H
1013 O1013     9.1970    -4.2400    -1.0740 O
1014 H1014     8.8760    -4.9590    -0.5300 H
1015 H1015     8.5220    -3.5650    -1.0010 H
1016 O1016    12.4120   -14.0070    -5.7110 O
1017 H1017    12.7800   -14.8280    -5.3830 H
1018 H1018    11.5520   -13.9470    -5.2950 H
1019 O1019     9.3720   -11.3530    -5.4870 O
1020 H1020     9.8710   -10.8790    -4.8220 H
1021 H1021     9.5140   -12.2770    -5.2800 H
1022 O1022    14.8710    -9.8930   -11.1980 O
1023 H1023    13.9300    -9.8780   -11.0230 H
1024 H1024    15.1850   -10.6800   -10.7520 H
1025 O1025     4.3450    -0.6290    -9.8510 O
1026 H1026     5.0820    -1.1780    -9.5800 H
1027 H1027     4.7290     0.2360    -9.9900 H
1028 O1028    12.1880    -5.3370    -0.7150 O
1029 H1029    11.5810    -5.3140    -1.4550 H
1030 H1030    11.8830    -6.0680    -0.1780 H
1031 O1031    13.6180    -1.6090    -2.1040 O
1032 H1032    14.5700    -1.6930    -2.1540 H
1033 H1033    13.4700    -0.9450    -1.4300 H
1034 O1034     1.0710    -8.9570    -1.7190 O
1035 H1035     1.5750    -9.5370    -1.1470 H
1036 H1036     0.3320    -8.6730    -1.1810 H
1037 O1037     8.1250    -7.5500    -2.1850 O
1038 H1038     7.3590    -6.9820    -2.2700 H
1039 H1039     8.3060    -7.8430    -3.0780 H
1040 O1040     3.1030   -10.8140    -0.8240 O
1041 H1041     3.1440   -11.1130     0.0850 H
1042 H1042     3.9580   -10.4140    -0.9830 H
1043 O1043     5.0440   -12.2350    -2.8560 O
1044 H1044     4.5130   -12.7260    -3.4840 H
1045 H1045     5.7130   -11.8070    -3.3900 H
1046 O1046    13.9420    -7.7680    -3.0920 O
1047 H1047    14.3560    -7.6140    -2.2430 H
1048 H1048    13.0070    -7.6430    -2.9300 H
1049 O1049    14.4140   -10.4290    -1.0880 O
1050 H1050    14.9960   -11.1830    -1.1760 H
1051 H1051    14.5900    -9.8980    -1.8650 H
1052 O1052     5.5310   -15.2690    -2.7770 O
1053 H1053     5.4370   -15.8870    -3.5010 H
1054 H1054     4.9510   -14.5420    -3.0040 H
1055 O1055     8.2970   -16.7120    -5.7440 O
1056 H1056     7.8490   -16.6890    -6.5890 H
1057 H1057     7.6640   -17.1100    -5.1470 H
1058 O1058     8.7030    -7.8160    -5.1230 O
1059 H1059     9.1220    -6.9730    -5.2950 H
1060 H1060     7.7840    -7.6790    -5.3520 H
1061 O1061    11.0390   -10.0850    -3.7390 O
1062 H1062    11.1590   -10.6800    -2.9990 H
1063 H1063    11.8990   -10.0480    -4.1590 H
1064 O1064    13.3780    -9.5310    -5.1630 O
1065 H1065    12.8520    -9.0070    -5.7660 H
1066 H1066    13.7210    -8.8980    -4.5320 H
1067 O1067     6.5540    -1.5110    -4.0070 O
1068 H1068     6.0160    -0.7860    -4.3260 H
1069 H1069     6.8070    -1.9880    -4.7970 H
1070 O1070     7.8060   -13.5420    -2.4810 O
1071 H1071     8.3960   -13.8510    -1.7930 H
1072 H1072     6.9880   -14.0140    -2.3250 H
1073 O1073    12.6260   -13.9260    -2.2480 O
1074 H1074    11.9370   -14.5880    -2.3130 H
1075 H1075    13.3460   -14.3720    -1.8030 H
1076 O1076     9.4100    -0.2760    -3.7480 O
1077 H1077     9.3360     0.6280    -3.4410 H
1078 H1078     8.5080    -0.5950    -3.7760 H
1079 O1079     0.8130    -2.9480   -10.4450 O
1080 H1080     1.1430    -3.8160   -10.6770 H
1081 H1081     1.2420    -2.7420    -9.6140 H
1082 O1082     1.3020    -2.0810    -7.7070 O
1083 H1083     0.8650    -1.9010    -6.8740 H
1084 H1084     1.8700    -1.3240    -7.8480 H
1085 O1085     2.1720    -9.1840    -6.8070 O
1086 H1086     2.5390    -9.2710    -5.9280 H
1087 H1087     1.6030    -9.9470    -6.9070 H
1088 O1088     1.7230   -12.2730    -2.9020 O
1089 H1089     0.8290   -12.3060    -2.5620 H
1090 H1090     2.2630   -12.0740    -2.1360 H
1091 O1091     3.5870    -4.6710    -1.6450 O
1092 H1092     3.5440    -5.0410    -0.7640 H
1093 H1093     3.7180    -3.7330    -1.5050 H
1094 O1094     7.2880    -3.1150    -6.0440 O
1095 H1095     7.0470    -2.8470    -6.9310 H
1096 H1096     8.2280    -2.9440    -5.9890 H
1097 O1097     9.4930   -16.6520    -2.2890 O
1098 H1098     9.4320   -16.0590    -1.5390 H
1099 H1099    10.4330   -16.7590    -2.4340 H
1100 O1100    12.1310   -16.9950    -2.6490 O
1101 H1101    12.7450   -16.6770    -3.3110 H
1102 H1102    12.6760   -17.4800    -2.0300 H
1103 O1103     3.4260    -1.7250    -4.5260 O
1104 H1104     2.8320    -1.8560    -3.7870 H
1105 H1105     3.4180    -2.5610    -4.9910 H
1106 O1106    13.7790   -16.2240    -4.9380 O
1107 H1107    13.4500   -17.0390    -5.3180 H
1108 H1108    14.7270   -16.2670    -5.0620 H
1109 O1109     3.0570    -4.3590    -5.5750 O
1110 H1110     2.3300    -4.9780    -5.6420 H
1111 H1111     3.1180    -3.9650    -6.4450 H
1112 O1112     6.6620    -2.1440    -8.7900 O
1113 H1113     7.1780    -2.7550    -9.3150 H
1114 H1114     7.3110    -1.6410    -8.2990 H
1115 O1115     9.4010    -1.2530    -7.9630 O
1116 H1116     9.6890    -1.5080    -8.8400 H
1117 H1117     9.9130    -1.8060    -7.3720 H
1118 O1118     9.4680    -0.3320    -0.5960 O
1119 H1119    10.3950    -0.5670    -0.5530 H
1120 H1120     9.4530     0.4950    -1.0770 H
1121 O1121    -6.6120     8.5420     7.6580 O
1122 H1122    -6.6930     7.6270     7.3870 H
1123 H1123    -7.0260     9.0380     6.9520 H
1124 O1124    -8.4800    10.3200     9.5390 O
1125 H1125    -9.2560     9.8400     9.8290 H
1126 H1126    -7.8290     9.6400     9.3650 H
1127 O1127   -14.4640    10.6320    10.4170 O
1128 H1128   -15.2950    10.3760    10.8160 H
1129 H1129   -13.8560    10.7030    11.1530 H
1130 O1130    -4.4600    14.7260     8.3190 O
1131 H1131    -4.9220    13.9540     8.6480 H
1132 H1132    -3.6470    14.7520     8.8240 H
1133 O1133   -14.4840    14.6660    10.6130 O
1134 H1134   -14.1810    13.7750    10.4340 H
1135 H1135   -13.7390    15.2230    10.3850 H
1136 O1136    -8.2330    17.0110     7.9400 O
1137 H1137    -8.8520    17.4670     7.3690 H
1138 H1138    -7.3780    17.1670     7.5390 H
1139 O1139    -9.0400    12.9950     9.5460 O
1140 H1140    -9.1090    12.0540     9.3850 H
1141 H1141    -8.2780    13.0850    10.1190 H
1142 O1142    -8.0090     5.8020     9.7730 O
1143 H1143    -7.6330     4.9300     9.6610 H
1144 H1144    -8.1070     6.1380     8.8820 H
1145 O1145   -13.8790     4.1750     5.2350 O
1146 H1146   -13.7720     5.0750     5.5420 H
1147 H1147   -14.7890     4.1270     4.9440 H
1148 O1148    -4.2270     3.2970     6.7060 O
1149 H1149    -3.4060     2.8070     6.7490 H
1150 H1150    -4.1930     3.8870     7.4590 H
1151 O1151   -12.0380     7.1440     9.5670 O
1152 H1152   -11.5300     7.6420    10.2080 H
1153 H1153   -11.5060     6.3670     9.3910 H
1154 O1154    -7.3670    11.8950     5.3330 O
1155 H1155    -7.9850    12.3600     4.7690 H
1156 H1156    -6.8550    12.5880     5.7500 H
1157 O1157    -3.9900     5.2370     9.4790 O
1158 H1158    -4.6950     5.5260    10.0590 H
1159 H1159    -3.6290     6.0470     9.1190 H
1160 O1160    -0.9220     4.6830     9.8700 O
1161 H1161    -1.8690     4.7170    10.0010 H
1162 H1162    -0.5970     5.4970    10.2550 H
1163 O1163   -10.3900     0.9830     8.1650 O
1164 H1164   -10.0820     0.4270     7.4490 H
1165 H1165   -11.3200     1.1170     7.9830 H
1166 O1166    -4.8380    16.6990    10.4560 O
1167 H1167    -4.8260    16.2960     9.5880 H
1168 H1168    -5.3910    17.4740    10.3520 H
1169 O1169    -3.5440    13.4210     5.5450 O
1170 H1170    -3.6540    12.4780     5.6700 H
1171 H1171    -3.5470    13.7830     6.4310 H
1172 O1172    -8.0020     9.0480     4.9010 O
1173 H1173    -8.9290     8.9810     5.1300 H
1174 H1174    -7.8490     9.9860     4.7870 H
1175 O1175    -8.0150     5.3190     1.8980 O
1176 H1176    -8.9540     5.4810     1.9830 H
1177 H1177    -7.6970     6.0380     1.3520 H
1178 O1178    -3.9720    10.6100     5.4050 O
1179 H1179    -4.5910    10.2720     4.7570 H
1180 H1180    -3.9900     9.9660     6.1130 H
1181 O1181   -12.3960     9.5740     7.6830 O
1182 H1182   -12.8000     8.8620     7.1880 H
1183 H1183   -12.3100     9.2290     8.5720 H
1184 O1184   -11.9280    13.2610     9.8470 O
1185 H1185   -12.2250    12.6550     9.1680 H
1186 H1186   -10.9780    13.2980     9.7360 H
1187 O1187    -5.7960     9.8480     2.4120 O
1188 H1188    -5.3560     9.0100     2.2660 H
1189 H1189    -5.0830    10.4810     2.4980 H
1190 O1190    -7.6860    14.7880     6.3800 O
1191 H1191    -7.2460    15.5300     5.9660 H
1192 H1192    -7.7470    15.0310     7.3040 H
1193 O1193    -5.3160    15.2840     2.2960 O
1194 H1194    -6.0100    15.2810     1.6370 H
1195 H1195    -4.5740    14.8590     1.8660 H
1196 O1196    -5.7510    16.9100     6.3710 O
1197 H1197    -5.2960    16.1290     6.6850 H
1198 H1198    -5.4120    17.6200     6.9150 H
1199 O1199   -13.2290     1.8120     8.5660 O
1200 H1200   -13.6720     2.5930     8.2350 H
1201 H1201   -12.6710     2.1350     9.2730 H
1202 O1202   -10.1130     1.4330     3.4470 O
1203 H1203   -10.7380     1.4290     4.1720 H
1204 H1204   -10.2000     0.5660     3.0500 H
1205 O1205   -11.1920     2.3570    10.4250 O
1206 H1206   -10.8940     3.2630    10.3440 H
1207 H1207   -10.6430     1.8690     9.8110 H
1208 O1208   -13.4380     6.9350     6.2940 O
1209 H1209   -13.6640     6.7190     7.1990 H
1210 H1210   -14.2190     7.3680     5.9490 H
1211 O1211    -6.2080     6.9420     4.8930 O
1212 H1212    -6.8070     7.6650     4.7100 H
1213 H1213    -5.6600     6.8790     4.1110 H
1214 O1214    -7.6020     5.5780     6.9240 O
1215 H1215    -7.2090     5.8950     6.1110 H
1216 H1216    -7.2400     4.6990     7.0380 H
1217 O1217    -7.0160     8.1690    11.0190 O
1218 H1218    -7.7480     8.6770    11.3680 H
1219 H1219    -7.4140     7.3520    10.7180 H
1220 O1220   -10.5780     4.8440     9.4240 O
1221 H1221   -10.5750     4.4030     8.5750 H
1222 H1222    -9.6830     5.1660     9.5310 H
1223 O1223   -10.5160     5.8450     2.4150 O
1224 H1224   -10.3950     5.8040     3.3630 H
1225 H1225   -10.9010     6.7080     2.2590 H
1226 O1226    -6.5530     3.6220    10.4310 O
1227 H1227    -6.5360     4.0730    11.2750 H
1228 H1228    -6.8020     2.7230    10.6450 H
1229 O1229   -11.5040     8.1550     1.8130 O
1230 H1230   -12.0720     7.7070     1.1870 H
1231 H1231   -10.7950     8.5150     1.2800 H
1232 O1232   -13.9590    12.1510     4.0860 O
1233 H1233   -14.7330    11.6110     3.9260 H
1234 H1234   -13.2300    11.6320     3.7480 H
1235 O1235    -3.2010    11.1480     9.8780 O
1236 H1236    -2.4810    11.6430     9.4880 H
1237 H1237    -3.4020    10.4700     9.2340 H
1238 O1238    -7.7400     2.5420     4.0210 O
1239 H1239    -8.5530     2.0430     3.9460 H
1240 H1240    -7.9330     3.3810     3.6050 H
1241 O1241    -5.0250     6.9130     2.3180 O
1242 H1242    -4.1370     7.2250     2.1430 H
1243 H1243    -5.0540     6.0410     1.9260 H
1244 O1244   -13.9160    11.8190     7.7240 O
1245 H1245   -13.3980    11.0160     7.6690 H
1246 H1246   -14.3670    11.7570     8.5650 H
1247 O1247    -9.0290    13.0860     2.9960 O
1248 H1248    -8.6870    13.8300     2.5010 H
1249 H1249    -9.8570    13.3990     3.3590 H
1250 O1250    -2.7530     8.2250     1.7860 O
1251 H1251    -2.8370     8.6560     0.9350 H
1252 H1252    -2.0340     8.6850     2.2180 H
1253 O1253    -1.7250    15.0790     4.5140 O
1254 H1254    -2.3670    14.4240     4.7880 H
1255 H1255    -2.1120    15.4840     3.7380 H
1256 O1256    -6.1460    12.4070     8.3610 O
1257 H1257    -5.7940    11.8100     7.7010 H
1258 H1258    -7.0300    12.0820     8.5320 H
1259 O1259   -10.0600    13.1670     5.7680 O
1260 H1260    -9.3730    13.7140     6.1490 H
1261 H1261   -10.8460    13.7110     5.8030 H
1262 O1262   -10.7570    10.1720     5.3810 O
1263 H1263   -10.3010    10.9820     5.6070 H
1264 H1264   -11.1080     9.8540     6.2120 H
1265 O1265    -7.1800    13.6860    11.3270 O
1266 H1266    -6.5380    12.9850    11.4410 H
1267 H1267    -6.6560    14.4660    11.1470 H
1268 O1268    -3.3350    13.9710     1.0510 O
1269 H1269    -3.5610    13.2540     1.6440 H
1270 H1270    -3.7250    13.7220     0.2140 H
1271 O1271    -3.7530    11.8880     2.7130 O
1272 H1272    -4.0410    12.3490     3.5010 H
1273 H1273    -2.9580    11.4280     2.9810 H
1274 O1274   -11.5360    15.3800     2.6430 O
1275 H1275   -11.5450    16.1130     2.0280 H
1276 H1276   -12.4570    15.1340     2.7360 H
1277 O1277    -2.9960     3.7230     3.8720 O
1278 H1278    -3.6250     3.8270     3.1580 H
1279 H1279    -3.4910     3.9420     4.6620 H
1280 O1280    -8.5500    15.4430     1.3060 O
1281 H1281    -8.4490    15.2400     0.3760 H
1282 H1282    -9.4500    15.1890     1.5110 H
1283 O1283   -11.0280     6.0010     5.2880 O
1284 H1284   -11.7360     6.4700     5.7290 H
1285 H1285   -10.7430     5.3430     5.9230 H
1286 O1286    -6.9960     2.7260     6.7280 O
1287 H1287    -7.1200     2.7450     5.7790 H
1288 H1288    -6.0480     2.7740     6.8480 H
1289 O1289   -12.8240     4.3100     2.6630 O
1290 H1290   -11.9750     4.7470     2.5970 H
1291 H1291   -13.1910     4.6220     3.4900 H
1292 O1292    -3.9030     8.8810     7.5760 O
1293 H1293    -4.8440     8.8960     7.7510 H
1294 H1294    -3.5890     8.0950     8.0220 H
1295 O1295   -13.9250    10.5630     1.1370 O
1296 H1296   -13.1590    10.4510     1.6990 H
1297 H1297   -13.8480     9.8670     0.4840 H
1298 O1298   -15.2310     7.9950     1.8200 O
1299 H1299   -15.1500     7.0480     1.9320 H
1300 H1300   -14.3390     8.3260     1.9260 H
1301 O1301    -1.9010    16.0520     9.2520 O
1302 H1302    -1.7760    16.8750     9.7240 H
1303 H1303    -1.0340    15.8410     8.9040 H
1304 O1304   -11.3190    17.3180     0.7460 O
1305 H1305   -10.5260    17.6070     0.2940 H
1306 H1306   -11.8380    16.8870     0.0670 H
1307 O1307    -2.2660    16.5450     2.1700 O
1308 H1308    -2.5520    16.1320     1.3550 H
1309 H1309    -2.4640    17.4740     2.0500 H
1310 O1310   -10.8010    12.5380     0.6100 O
1311 H1311   -10.9060    11.9240     1.3360 H
1312 H1312   -10.9690    12.0150    -0.1730 H
1313 O1313    -7.5610    11.6000     1.2140 O
1314 H1314    -8.1100    12.0470     1.8590 H
1315 H1315    -6.9390    11.0950     1.7380 H
1316 O1316   -11.8930    10.5590     3.1110 O
1317 H1317   -11.4720    10.3930     3.9540 H
1318 H1318   -11.7680     9.7490     2.6170 H
1319 O1319    -9.3810     9.5830     0.3590 O
1320 H1320    -8.8600     8.8680    -0.0070 H
1321 H1321    -8.7340    10.2220     0.6590 H
1322 O1322   -12.9970     6.6330     0.0570 O
1323 H1323   -13.1990     5.7700     0.4180 H
1324 H1324   -13.1680     6.5460    -0.8810 H
1325 O1325    -5.5190     1.4440     2.5860 O
1326 H1326    -5.2380     0.6000     2.9410 H
1327 H1327    -6.2920     1.6760     3.0990 H
1328 O1328   -14.1990     3.7330     0.0450 O
1329 H1329   -13.8970     3.7400    -0.8630 H
1330 H1330   -13.4600     3.3830     0.5410 H
1331 O1331   -10.9810     2.6760     1.0300 O
1332 H1332   -11.3280     1.9990     0.4500 H
1333 H1333   -10.7790     2.2150     1.8450 H
1334 O1334   -15.1760    13.0370     0.8780 O
1335 H1335   -14.7390    13.5800     1.5330 H
1336 H1336   -14.6910    12.2120     0.8870 H
1337 O1337   -13.3650    14.1570     5.9900 O
1338 H1338   -13.6660    14.0330     6.8900 H
1339 H1339   -13.4720    13.2980     5.5810 H
1340 O1340    -0.5960    13.9370     0.6920 O
1341 H1341    -1.4270    14.0040     1.1630 H
1342 H1342    -0.4190    14.8270     0.3890 H
1343 O1343    -1.1410    10.6810     3.1960 O
1344 H1344    -0.3790    11.2510     3.3020 H
1345 H1345    -1.1250    10.1140     3.9670 H
1346 O1346    -0.1350    11.5360     8.0400 O
1347 H1347     0.2360    10.7530     7.6340 H
1348 H1348     0.5060    12.2250     7.8620 H
1349 O1349    -1.0890    10.9750     0.3530 O
1350 H1350    -0.8140    11.8830     0.2250 H
1351 H1351    -1.2780    10.9110     1.2890 H
1352 O1352    -4.6910     3.9990     1.6490 O
1353 H1353    -4.2730     3.8120     0.8080 H
1354 H1354    -4.9970     3.1470     1.9590 H
1355 O1355    -1.1920     8.9120     5.3460 O
1356 H1356    -1.5680     8.1440     4.9140 H
1357 H1357    -1.9220     9.2940     5.8340 H
1358 O1358    -1.9170     7.1370     8.6470 O
1359 H1359    -1.3930     6.6440     8.0160 H
1360 H1360    -1.3310     7.2720     9.3920 H
1361 O1361    -2.4270     6.3950     4.5860 O
1362 H1362    -1.9310     6.1620     5.3710 H
1363 H1363    -2.6250     5.5560     4.1700 H
1364 O1364    -0.9980     5.0310     7.1200 O
1365 H1365    -1.1080     4.8760     8.0580 H
1366 H1366    -0.2380     4.5030     6.8770 H
1367 O1367    -3.0940    17.6720     6.9800 O
1368 H1368    -2.4980    17.3500     6.3030 H
1369 H1369    -2.8360    17.1990     7.7710 H
1370 O1370   -12.1130    16.6300     9.9850 O
1371 H1371   -11.5960    16.0190     9.4590 H
1372 H1372   -11.4630    17.1330    10.4760 H
1373 O1373    -9.3730    17.5210    10.8110 O
1374 H1374    -9.0850    17.2660     9.9350 H
1375 H1375    -8.8610    16.9690    11.4020 H
1376 O1376    -3.6030     1.9620     9.4360 O
1377 H1377    -3.1630     1.9070     8.5880 H
1378 H1378    -3.8730     2.8780     9.5070 H
1379 O1379    -1.7400     1.5940     7.4470 O
1380 H1380    -1.8010     0.6500     7.3000 H
1381 H1381    -0.9600     1.7020     7.9920 H
1382 O1382   -10.2700     3.6790     6.9030 O
1383 H1383   -11.0830     3.3040     6.5620 H
1384 H1384    -9.7660     2.9230     7.2050 H
1385 O1385    -5.7680     0.3430     8.1410 O
1386 H1386    -5.1650     0.9150     8.6160 H
1387 H1387    -6.5080     0.9070     7.9180 H
1388 O1388   -14.4390     2.0910     2.4530 O
1389 H1389   -13.9100     1.3040     2.3230 H
1390 H1390   -13.8060     2.7700     2.6860 H
1391 O1391   -12.2450     1.8290     5.5070 O
1392 H1392   -12.8750     1.1270     5.6740 H
1393 H1393   -12.7850     2.5890     5.2910 H
1394 O1394   -14.0670    14.4910     2.7340 O
1395 H1395   -14.6960    14.9600     3.2820 H
1396 H1396   -13.9520    13.6460     3.1680 H
1397 O1397    -8.4800    10.3200    -9.2350 O
1398 H1398    -9.2560     9.8400    -8.9450 H
1399 H1399    -7.8290     9.6400    -9.4090 H
1400 O1400   -14.4640    10.6320    -8.3580 O
1401 H1401   -15.2950    10.3760    -7.9580 H
1402 H1402   -13.8560    10.7030    -7.6220 H
1403 O1403    -4.4600    14.7260   -10.4550 O
1404 H1404    -4.9220    13.9540   -10.1260 H
1405 H1405    -3.6470    14.7520    -9.9500 H
1406 O1406   -14.4840    14.6660    -8.1620 O
1407 H1407   -14.1810    13.7750    -8.3410 H
1408 H1408   -13.7390    15.2230    -8.3900 H
1409 O1409    -8.2330    17.0110   -10.8350 O
1410 H1410    -8.8520    17.4670   -11.4050 H
1411 H1411    -7.3780    17.1670   -11.2360 H
1412 O1412    -9.0400    12.9950    -9.2280 O
1413 H1413    -9.1090    12.0540    -9.3890 H
1414 H1414    -8.2780    13.0850    -8.6560 H
1415 O1415    -8.0090     5.8020    -9.0010 O
1416 H1416    -7.6330     4.9300    -9.1140 H
1417 H1417    -8.1070     6.1380    -9.8920 H
1418 O1418   -12.0380     7.1440    -9.2070 O
1419 H1419   -11.5300     7.6420    -8.5660 H
1420 H1420   -11.5060     6.3670    -9.3830 H
1421 O1421     0.0630     5.3140    -5.5040 O
1422 H1422    -0.6410     5.7020    -6.0220 H
1423 H1423     0.3290     6.0090    -4.9020 H
1424 O1424   -13.7540     1.7830    -4.9410 O
1425 H1425   -13.7520     2.3010    -5.7460 H
1426 H1426   -14.5840     1.3060    -4.9640 H
1427 O1427   -12.5040    11.4230    -6.7630 O
1428 H1428   -12.8370    12.0500    -6.1210 H
1429 H1429   -12.3270    11.9490    -7.5430 H
1430 O1430    -3.9900     5.2370    -9.2960 O
1431 H1431    -4.6950     5.5260    -8.7150 H
1432 H1432    -3.6290     6.0470    -9.6560 H
1433 O1433   -14.0730     3.4940    -6.9340 O
1434 H1434   -13.7310     4.3390    -7.2280 H
1435 H1435   -15.0110     3.6430    -6.8170 H
1436 O1436   -13.2920    13.3910    -4.9480 O
1437 H1437   -12.6750    14.0660    -5.2300 H
1438 H1438   -14.1530    13.8000    -5.0400 H
1439 O1439    -2.3740    14.8550    -7.0330 O
1440 H1440    -3.0580    15.5250    -7.0410 H
1441 H1441    -1.8350    15.0530    -7.7980 H
1442 O1442    -0.9220     4.6830    -8.9050 O
1443 H1443    -1.8690     4.7170    -8.7730 H
1444 H1444    -0.5970     5.4970    -8.5200 H
1445 O1445   -10.3900     0.9830   -10.6090 O
1446 H1446   -10.0820     0.4270   -11.3260 H
1447 H1447   -11.3200     1.1170   -10.7920 H
1448 O1448    -4.8380    16.6990    -8.3180 O
1449 H1449    -4.8260    16.2960    -9.1860 H
1450 H1450    -5.3910    17.4740    -8.4220 H
1451 O1451    -5.4400    11.6020    -6.9900 O
1452 H1452    -5.0230    11.3880    -7.8250 H
1453 H1453    -4.7160    11.8600    -6.4190 H
1454 O1454    -1.4940    10.0010    -6.8980 O
1455 H1455    -2.3220    10.0700    -7.3730 H
1456 H1456    -0.8990    10.5870    -7.3670 H
1457 O1457    -4.5290     6.7880    -5.9530 O
1458 H1458    -4.9420     7.6130    -5.6990 H
1459 H1459    -5.2620     6.2030    -6.1450 H
1460 O1460   -12.3960     9.5740   -11.0910 O
1461 H1461   -12.8000     8.8620   -11.5870 H
1462 H1462   -12.3100     9.2290   -10.2020 H
1463 O1463   -11.9280    13.2610    -8.9270 O
1464 H1464   -12.2250    12.6550    -9.6060 H
1465 H1465   -10.9780    13.2980    -9.0380 H
1466 O1466   -13.6830     6.3480    -7.3110 O
1467 H1467   -13.1320     6.4580    -8.0860 H
1468 H1468   -13.1690     6.7220    -6.5960 H
1469 O1469    -3.8390    16.8340    -5.2650 O
1470 H1470    -4.3160    17.6410    -5.4580 H
1471 H1471    -4.5230    16.1820    -5.1120 H
1472 O1472   -12.8360    12.9990    -2.2760 O
1473 H1473   -13.7330    13.2230    -2.0290 H
1474 H1474   -12.8110    13.1220    -3.2250 H
1475 O1475   -14.0090     9.8700    -3.7010 O
1476 H1476   -14.1480    10.7430    -3.3320 H
1477 H1477   -14.8910     9.5280    -3.8460 H
1478 O1478   -12.2110    15.8120    -1.4920 O
1479 H1479   -12.2390    16.2170    -2.3590 H
1480 H1480   -12.3740    14.8830    -1.6550 H
1481 O1481    -0.2590    16.5950    -0.1960 O
1482 H1482     0.2170    17.0730     0.4830 H
1483 H1483     0.3610    16.5270    -0.9210 H
1484 O1484    -0.8560    13.7860    -3.0360 O
1485 H1485    -0.7300    13.5480    -3.9540 H
1486 H1486    -0.8140    12.9550    -2.5640 H
1487 O1487   -13.2290     1.8120   -10.2080 O
1488 H1488   -13.6720     2.5930   -10.5400 H
1489 H1489   -12.6710     2.1350    -9.5010 H
1490 O1490    -8.9420     4.6790    -4.6050 O
1491 H1491    -9.4040     4.8870    -3.7930 H
1492 H1492    -9.3440     3.8650    -4.9070 H
1493 O1493    -3.9420     5.9000    -3.4750 O
1494 H1494    -4.7920     5.6000    -3.1540 H
1495 H1495    -4.1020     6.1440    -4.3860 H
1496 O1496    -6.8470     7.4000    -1.3750 O
1497 H1497    -6.5220     6.5660    -1.7150 H
1498 H1498    -6.0590     7.9230    -1.2270 H
1499 O1499   -11.1920     2.3570    -8.3490 O
1500 H1500   -10.8940     3.2630    -8.4300 H
1501 H1501   -10.6430     1.8690    -8.9630 H
1502 O1502   -10.9980     7.8340    -1.8140 O
1503 H1503   -11.0940     6.8930    -1.9640 H
1504 H1504   -10.1550     8.0550    -2.2090 H
1505 O1505    -9.2920     4.3290    -0.5910 O
1506 H1506    -9.9830     4.1360     0.0440 H
1507 H1507    -8.5490     4.6120    -0.0580 H
1508 O1508    -7.0160     8.1690    -7.7550 O
1509 H1509    -7.7480     8.6770    -7.4060 H
1510 H1510    -7.4140     7.3520    -8.0570 H
1511 O1511   -10.5780     4.8440    -9.3500 O
1512 H1512   -10.5750     4.4030   -10.2000 H
1513 H1513    -9.6830     5.1660    -9.2430 H
1514 O1514    -6.5530     3.6220    -8.3430 O
1515 H1515    -6.5360     4.0730    -7.4990 H
1516 H1516    -6.8020     2.7230    -8.1300 H
1517 O1517   -10.2780     8.9040    -7.6040 O
1518 H1518    -9.9110     8.4300    -6.8580 H
1519 H1519   -10.4670     9.7780    -7.2630 H
1520 O1520   -12.4880     7.9450    -5.2850 O
1521 H1521   -12.7920     8.8240    -5.0600 H
1522 H1522   -11.5330     8.0050    -5.2500 H
1523 O1523    -3.2010    11.1480    -8.8960 O
1524 H1524    -2.4810    11.6430    -9.2860 H
1525 H1525    -3.4020    10.4700    -9.5410 H
1526 O1526    -7.8190    11.2190    -3.0090 O
1527 H1527    -7.8850    10.2980    -3.2630 H
1528 H1528    -8.4480    11.3160    -2.2950 H
1529 O1529   -13.9160    11.8190   -11.0510 O
1530 H1530   -13.3980    11.0160   -11.1050 H
1531 H1531   -14.3670    11.7570   -10.2090 H
1532 O1532   -13.2300     9.2440    -1.2540 O
1533 H1533   -13.5300     9.3900    -2.1510 H
1534 H1534   -12.4590     8.6840    -1.3470 H
1535 O1535    -7.8870    14.0410    -3.2590 O
1536 H1536    -7.8730    13.1090    -3.4770 H
1537 H1537    -8.5950    14.1270    -2.6200 H
1538 O1538    -1.6760    10.6810    -3.9120 O
1539 H1539    -2.4010    11.2740    -4.1090 H
1540 H1540    -1.1480    10.6740    -4.7100 H
1541 O1541    -6.1460    12.4070   -10.4130 O
1542 H1542    -5.7940    11.8100   -11.0730 H
1543 H1543    -7.0300    12.0820   -10.2430 H
1544 O1544    -8.4540    15.6820    -6.1650 O
1545 H1545    -7.8090    15.8880    -5.4870 H
1546 H1546    -8.0910    14.9210    -6.6180 H
1547 O1547    -7.1800    13.6860    -7.4470 O
1548 H1548    -6.5380    12.9850    -7.3340 H
1549 H1549    -6.6560    14.4660    -7.6270 H
1550 O1550    -5.4070    14.4850    -4.2430 O
1551 H1551    -5.0710    15.0720    -3.5650 H
1552 H1552    -6.3270    14.3540    -4.0130 H
1553 O1553    -9.5780    14.5340    -1.0740 O
1554 H1554    -9.8980    13.8150    -0.5300 H
1555 H1555   -10.2520    15.2100    -1.0010 H
1556 O1556    -6.3620     4.7670    -5.7110 O
1557 H1557    -5.9940     3.9460    -5.3830 H
1558 H1558    -7.2230     4.8270    -5.2950 H
1559 O1559    -9.4020     7.4210    -5.4870 O
1560 H1560    -8.9040     7.8950    -4.8220 H
1561 H1561    -9.2600     6.4970    -5.2800 H
1562 O1562    -2.1960     3.6380    -4.6440 O
1563 H1563    -2.6980     4.3780    -4.3050 H
1564 H1564    -1.3800     4.0260    -4.9600 H
1565 O1565    -3.9030     8.8810   -11.1980 O
1566 H1566    -4.8440     8.8960   -11.0230 H
1567 H1567    -3.5890     8.0950   -10.7520 H
1568 O1568    -1.9010    16.0520    -9.5230 O
1569 H1569    -1.7760    16.8750    -9.0500 H
1570 H1570    -1.0340    15.8410    -9.8700 H
1571 O1571    -6.5870    13.4380    -0.7150 O
1572 H1572    -7.1930    13.4610    -1.4550 H
1573 H1573    -6.8910    12.7060    -0.1780 H
1574 O1574   -10.6500    11.2240    -2.1850 O
1575 H1575   -11.4150    11.7930    -2.2700 H
1576 H1576   -10.4680    10.9320    -3.0780 H
1577 O1577    -3.5070    12.9550    -1.6280 O
1578 H1578    -2.7660    13.2920    -2.1310 H
1579 H1579    -4.2700    13.1240    -2.1810 H
1580 O1580   -13.7310     6.5390    -2.8560 O
1581 H1581   -14.2610     6.0480    -3.4840 H
1582 H1582   -13.0620     6.9680    -3.3900 H
1583 O1583    -4.8330    11.0060    -3.0920 O
1584 H1584    -4.4190    11.1610    -2.2430 H
1585 H1585    -5.7680    11.1320    -2.9300 H
1586 O1586    -4.3610     8.3460    -1.0880 O
1587 H1587    -3.7780     7.5910    -1.1760 H
1588 H1588    -4.1840     8.8760    -1.8650 H
1589 O1589   -13.2430     3.5050    -2.7770 O
1590 H1590   -13.3380     2.8870    -3.5010 H
1591 H1591   -13.8240     4.2320    -3.0040 H
1592 O1592   -10.4770     2.0630    -5.7440 O
1593 H1593   -10.9250     2.0850    -6.5890 H
1594 H1594   -11.1110     1.6650    -5.1470 H
1595 O1595   -10.0710    10.9580    -5.1230 O
1596 H1596    -9.6520    11.8010    -5.2950 H
1597 H1597   -10.9900    11.0950    -5.3520 H
1598 O1598    -7.7350     8.6900    -3.7390 O
1599 H1599    -7.6150     8.0940    -2.9990 H
1600 H1600    -6.8750     8.7270    -4.1590 H
1601 O1601    -5.3960     9.2430    -5.1630 O
1602 H1602    -5.9230     9.7680    -5.7660 H
1603 H1603    -5.0530     9.8760    -4.5320 H
1604 O1604   -10.9680     5.2320    -2.4810 O
1605 H1605   -10.3780     4.9230    -1.7930 H
1606 H1606   -11.7860     4.7600    -2.3250 H
1607 O1607    -6.1490     4.8480    -2.2480 O
1608 H1608    -6.8370     4.1870    -2.3130 H
1609 H1609    -5.4280     4.4020    -1.8030 H
1610 O1610    -1.8360    16.1950    -3.4190 O
1611 H1611    -2.4360    16.2540    -4.1620 H
1612 H1612    -1.7070    15.2550    -3.2890 H
1613 O1613    -0.1350    11.5360   -10.7340 O
1614 H1614     0.2360    10.7530   -11.1410 H
1615 H1615     0.5060    12.2250   -10.9130 H
1616 O1616    -3.1510    12.9200    -5.3210 O
1617 H1617    -3.9650    13.3500    -5.0590 H
1618 H1618    -2.7440    13.5320    -5.9340 H
1619 O1619    -1.8020     8.0590    -3.7940 O
1620 H1620    -2.0340     7.8300    -4.6950 H
1621 H1621    -1.5420     8.9790    -3.8400 H
1622 O1622    -3.3630     3.2840    -1.0160 O
1623 H1623    -2.4860     3.2930    -0.6330 H
1624 H1624    -3.3510     2.5480    -1.6270 H
1625 O1625    -1.9170     7.1370   -10.1280 O
1626 H1626    -1.3930     6.6440   -10.7590 H
1627 H1627    -1.3310     7.2720    -9.3830 H
1628 O1628    -1.7380     7.2210    -6.6060 O
1629 H1629    -2.6880     7.1880    -6.4910 H
1630 H1630    -1.5570     8.1310    -6.8410 H
1631 O1631    -2.6520     0.9700    -5.1960 O
1632 H1632    -2.0140     1.5840    -4.8300 H
1633 H1633    -2.5040     1.0060    -6.1410 H
1634 O1634   -15.1870    14.1040    -1.6450 O
1635 H1635   -15.2300    13.7330    -0.7640 H
1636 H1636   -15.0560    15.0410    -1.5050 H
1637 O1637   -11.4870    15.6600    -6.0440 O
1638 H1638   -11.7280    15.9270    -6.9310 H
1639 H1639   -10.5460    15.8300    -5.9890 H
1640 O1640    -9.2810     2.1230    -2.2890 O
1641 H1641    -9.3420     2.7150    -1.5390 H
1642 H1642    -8.3410     2.0150    -2.4340 H
1643 O1643    -6.6440     1.7800    -2.6490 O
1644 H1644    -6.0300     2.0980    -3.3110 H
1645 H1645    -6.0990     1.2950    -2.0300 H
1646 O1646    -5.9030     0.3430    -6.3230 O
1647 H1647    -6.7770     0.6770    -6.5250 H
1648 H1648    -6.0120    -0.1300    -5.4970 H
1649 O1649    -4.9960     2.5500    -4.9380 O
1650 H1650    -5.3240     1.7350    -5.3180 H
1651 H1651    -4.0480     2.5070    -5.0620 H
1652 O1652   -12.1130    16.6300    -8.7900 O
1653 H1653   -11.5960    16.0190    -9.3150 H
1654 H1654   -11.4630    17.1330    -8.2990 H
1655 O1655    -9.3730    17.5210    -7.9630 O
1656 H1656    -9.0850    17.2660    -8.8400 H
1657 H1657    -8.8610    16.9690    -7.3720 H
1658 O1658    -8.1560     1.2600    -7.3830 O
1659 H1659    -8.9380     1.7350    -7.1040 H
1660 H1660    -8.4490     0.3560    -7.4920 H
1661 O1661    -3.6030     1.9620    -9.3380 O
1662 H1662    -3.1630     1.9070   -10.1860 H
1663 H1663    -3.8730     2.8780    -9.2670 H
1664 O1664    -1.7400     1.5940   -11.3270 O
1665 H1665    -1.8010     0.6500   -11.4740 H
1666 H1666    -0.9600     1.7020   -10.7820 H
1667 O1667    -5.7680     0.3430   -10.6330 O
1668 H1668    -5.1650     0.9150   -10.1590 H
1669 H1669    -6.5080     0.9070   -10.8560 H
1670 O1670   -12.1200     1.1070    -0.8320 O
1671 H1671   -12.4010     1.6100    -1.5960 H
1672 H1672   -11.7380     0.3090    -1.1980 H
1673 O1673    -6.6120   -10.2330     7.6580 O
1674 H1674    -6.6930   -11.1470     7.3870 H
1675 H1675    -7.0260    -9.7360     6.9520 H
1676 O1676    -8.4800    -8.4550     9.5390 O
1677 H1677    -9.2560    -8.9350     9.8290 H
1678 H1678    -7.8290    -9.1340     9.3650 H
1679 O1679   -14.4640    -8.1430    10.4170 O
1680 H1680   -15.2950    -8.3980    10.8160 H
1681 H1681   -13.8560    -8.0720    11.1530 H
1682 O1682    -4.4600    -4.0490     8.3190 O
1683 H1683    -4.9220    -4.8200     8.6480 H
1684 H1684    -3.6470    -4.0220     8.8240 H
1685 O1685   -14.4840    -4.1090    10.6130 O
1686 H1686   -14.1810    -4.9990    10.4340 H
1687 H1687   -13.7390    -3.5520    10.3850 H
1688 O1688    -8.2330    -1.7630     7.9400 O
1689 H1689    -8.8520    -1.3070     7.3690 H
1690 H1690    -7.3780    -1.6080     7.5390 H
1691 O1691    -9.0400    -5.7790     9.5460 O
1692 H1692    -9.1090    -6.7200     9.3850 H
1693 H1693    -8.2780    -5.6890    10.1190 H
1694 O1694    -8.0090   -12.9720     9.7730 O
1695 H1695    -7.6330   -13.8450     9.6610 H
1696 H1696    -8.1070   -12.6360     8.8820 H
1697 O1697   -13.8790   -14.5990     5.2350 O
1698 H1698   -13.7720   -13.6990     5.5420 H
1699 H1699   -14.7890   -14.6480     4.9440 H
1700 O1700    -4.2270   -15.4770     6.7060 O
1701 H1701    -3.4060   -15.9670     6.7490 H
1702 H1702    -4.1930   -14.8870     7.4590 H
1703 O1703   -12.0380   -11.6310     9.5670 O
1704 H1704   -11.5300   -11.1330    10.2080 H
1705 H1705   -11.5060   -12.4070     9.3910 H
1706 O1706    -7.3670    -6.8790     5.3330 O
1707 H1707    -7.9850    -6.4140     4.7690 H
1708 H1708    -6.8550    -6.1860     5.7500 H
1709 O1709    -3.9900   -13.5370     9.4790 O
1710 H1710    -4.6950   -13.2480    10.0590 H
1711 H1711    -3.6290   -12.7270     9.1190 H
1712 O1712    -0.9220   -14.0910     9.8700 O
1713 H1713    -1.8690   -14.0580    10.0010 H
1714 H1714    -0.5970   -13.2780    10.2550 H
1715 O1715    -4.8380    -2.0750    10.4560 O
1716 H1716    -4.8260    -2.4790     9.5880 H
1717 H1717    -5.3910    -1.3000    10.3520 H
1718 O1718    -3.5440    -5.3530     5.5450 O
1719 H1719    -3.6540    -6.2960     5.6700 H
1720 H1720    -3.5470    -4.9920     6.4310 H
1721 O1721    -8.0020    -9.7270     4.9010 O
1722 H1722    -8.9290    -9.7930     5.1300 H
1723 H1723    -7.8490    -8.7890     4.7870 H
1724 O1724    -8.0150   -13.4550     1.8980 O
1725 H1725    -8.9540   -13.2940     1.9830 H
1726 H1726    -7.6970   -12.7370     1.3520 H
1727 O1727    -3.9720    -8.1650     5.4050 O
1728 H1728    -4.5910    -8.5030     4.7570 H
1729 H1729    -3.9900    -8.8090     6.1130 H
1730 O1730   -12.3960    -9.2000     7.6830 O
1731 H1731   -12.8000    -9.9130     7.1880 H
1732 H1732   -12.3100    -9.5450     8.5720 H
1733 O1733   -11.9280    -5.5140     9.8470 O
1734 H1734   -12.2250    -6.1190     9.1680 H
1735 H1735   -10.9780    -5.4760     9.7360 H
1736 O1736    -7.6860    -3.9860     6.3800 O
1737 H1737    -7.2460    -3.2440     5.9660 H
1738 H1738    -7.7470    -3.7440     7.3040 H
1739 O1739    -2.2140   -17.6720     0.7260 O
1740 H1740    -2.5270   -17.5790     1.6260 H
1741 H1741    -1.4530   -17.0940     0.6760 H
1742 O1742   -12.5400    -1.2200     5.5140 O
1743 H1743   -12.7160    -2.1360     5.3000 H
1744 H1744   -13.3950    -0.8610     5.7530 H
1745 O1745    -5.7510    -1.8650     6.3710 O
1746 H1746    -5.2960    -2.6460     6.6850 H
1747 H1747    -5.4120    -1.1540     6.9150 H
1748 O1748   -13.2290   -16.9620     8.5660 O
1749 H1749   -13.6720   -16.1810     8.2350 H
1750 H1750   -12.6710   -16.6390     9.2730 H
1751 O1751   -11.1920   -16.4180    10.4250 O
1752 H1752   -10.8940   -15.5110    10.3440 H
1753 H1753   -10.6430   -16.9060     9.8110 H
1754 O1754   -13.4380   -11.8390     6.2940 O
1755 H1755   -13.6640   -12.0550     7.1990 H
1756 H1756   -14.2190   -11.4060     5.9490 H
1757 O1757    -6.2080   -11.8330     4.8930 O
1758 H1758    -6.8070   -11.1090     4.7100 H
1759 H1759    -5.6600   -11.8950     4.1110 H
1760 O1760    -7.6020   -13.1960     6.9240 O
1761 H1761    -7.2090   -12.8790     6.1110 H
1762 H1762    -7.2400   -14.0750     7.0380 H
1763 O1763    -7.0160   -10.6060    11.0190 O
1764 H1764    -7.7480   -10.0970    11.3680 H
1765 H1765    -7.4140   -11.4230    10.7180 H
1766 O1766   -10.5780   -13.9300     9.4240 O
1767 H1767   -10.5750   -14.3710     8.5750 H
1768 H1768    -9.6830   -13.6090     9.5310 H
1769 O1769   -10.5160   -12.9290     2.4150 O
1770 H1770   -10.3950   -12.9700     3.3630 H
1771 H1771   -10.9010   -12.0670     2.2590 H
1772 O1772    -6.5530   -15.1520    10.4310 O
1773 H1773    -6.5360   -14.7010    11.2750 H
1774 H1774    -6.8020   -16.0520    10.6450 H
1775 O1775   -11.5040   -10.6190     1.8130 O
1776 H1776   -12.0720   -11.0670     1.1870 H
1777 H1777   -10.7950   -10.2600     1.2800 H
1778 O1778   -13.9590    -6.6230     4.0860 O
1779 H1779   -14.7330    -7.1630     3.9260 H
1780 H1780   -13.2300    -7.1420     3.7480 H
1781 O1781    -3.2010    -7.6270     9.8780 O
1782 H1782    -2.4810    -7.1310     9.4880 H
1783 H1783    -3.4020    -8.3050     9.2340 H
1784 O1784    -7.7400   -16.2330     4.0210 O
1785 H1785    -8.5530   -16.7320     3.9460 H
1786 H1786    -7.9330   -15.3930     3.6050 H
1787 O1787    -5.0250   -11.8610     2.3180 O
1788 H1788    -4.1370   -11.5490     2.1430 H
1789 H1789    -5.0540   -12.7340     1.9260 H
1790 O1790   -13.9160    -6.9550     7.7240 O
1791 H1791   -13.3980    -7.7580     7.6690 H
1792 H1792   -14.3670    -7.0170     8.5650 H
1793 O1793    -9.0290    -5.6880     2.9960 O
1794 H1794    -8.6870    -4.9440     2.5010 H
1795 H1795    -9.8570    -5.3750     3.3590 H
1796 O1796    -2.7530   -10.5500     1.7860 O
1797 H1797    -2.8370   -10.1180     0.9350 H
1798 H1798    -2.0340   -10.0900     2.2180 H
1799 O1799    -1.7250    -3.6950     4.5140 O
1800 H1800    -2.3670    -4.3500     4.7880 H
1801 H1801    -2.1120    -3.2900     3.7380 H
1802 O1802    -6.1460    -6.3670     8.3610 O
1803 H1803    -5.7940    -6.9640     7.7010 H
1804 H1804    -7.0300    -6.6920     8.5320 H
1805 O1805   -10.0600    -5.6070     5.7680 O
1806 H1806    -9.3730    -5.0600     6.1490 H
1807 H1807   -10.8460    -5.0630     5.8030 H
1808 O1808   -10.7570    -8.6030     5.3810 O
1809 H1809   -10.3010    -7.7920     5.6070 H
1810 H1810   -11.1080    -8.9200     6.2120 H
1811 O1811    -7.1800    -5.0890    11.3270 O
1812 H1812    -6.5380    -5.7890    11.4410 H
1813 H1813    -6.6560    -4.3090    11.1470 H
1814 O1814   -11.5360    -3.3940     2.6430 O
1815 H1815   -11.5450    -2.6610     2.0280 H
1816 H1816   -12.4570    -3.6410     2.7360 H
1817 O1817    -2.9960   -15.0520     3.8720 O
1818 H1818    -3.6250   -14.9470     3.1580 H
1819 H1819    -3.4910   -14.8320     4.6620 H
1820 O1820    -8.5500    -3.3310     1.3060 O
1821 H1821    -8.4490    -3.5350     0.3760 H
1822 H1822    -9.4500    -3.5850     1.5110 H
1823 O1823   -11.0280   -12.7730     5.2880 O
1824 H1824   -11.7360   -12.3040     5.7290 H
1825 H1825   -10.7430   -13.4310     5.9230 H
1826 O1826    -6.9960   -16.0480     6.7280 O
1827 H1827    -7.1200   -16.0290     5.7790 H
1828 H1828    -6.0480   -16.0000     6.8480 H
1829 O1829    -9.9090    -0.8130     6.0000 O
1830 H1830    -9.6550    -0.8500     5.0780 H
1831 H1831   -10.8570    -0.9390     5.9930 H
1832 O1832   -12.8240   -14.4650     2.6630 O
1833 H1833   -11.9750   -14.0280     2.5970 H
1834 H1834   -13.1910   -14.1530     3.4900 H
1835 O1835    -3.9030    -9.8930     7.5760 O
1836 H1836    -4.8440    -9.8780     7.7510 H
1837 H1837    -3.5890   -10.6800     8.0220 H
1838 O1838   -13.9250    -8.2110     1.1370 O
1839 H1839   -13.1590    -8.3230     1.6990 H
1840 H1840   -13.8480    -8.9080     0.4840 H
1841 O1841   -15.2310   -10.7790     1.8200 O
1842 H1842   -15.1500   -11.7260     1.9320 H
1843 H1843   -14.3390   -10.4480     1.9260 H
1844 O1844    -1.9010    -2.7220     9.2520 O
1845 H1845    -1.7760    -1.8990     9.7240 H
1846 H1846    -1.0340    -2.9330     8.9040 H
1847 O1847   -14.4290    -0.6290     8.9230 O
1848 H1848   -13.6930    -1.1780     9.1940 H
1849 H1849   -14.0450     0.2360     8.7840 H
1850 O1850   -11.3190    -1.4560     0.7460 O
1851 H1851   -10.5260    -1.1670     0.2940 H
1852 H1852   -11.8380    -1.8870     0.0670 H
1853 O1853   -10.8010    -6.2360     0.6100 O
1854 H1854   -10.9060    -6.8510     1.3360 H
1855 H1855   -10.9690    -6.7590    -0.1730 H
1856 O1856   -11.8930    -8.2150     3.1110 O
1857 H1857   -11.4720    -8.3810     3.9540 H
1858 H1858   -11.7680    -9.0250     2.6170 H
1859 O1859    -9.3810    -9.1910     0.3590 O
1860 H1860    -8.8600    -9.9060    -0.0070 H
1861 H1861    -8.7340    -8.5530     0.6590 H
1862 O1862   -12.9970   -12.1420     0.0570 O
1863 H1863   -13.1990   -13.0050     0.4180 H
1864 H1864   -13.1680   -12.2280    -0.8810 H
1865 O1865   -14.1990   -15.0410     0.0450 O
1866 H1866   -13.8970   -15.0350    -0.8630 H
1867 H1867   -13.4600   -15.3920     0.5410 H
1868 O1868   -10.9810   -16.0980     1.0300 O
1869 H1869   -11.3280   -16.7760     0.4500 H
1870 H1870   -10.7790   -16.5590     1.8450 H
1871 O1871    -8.8160    -1.1100     2.6490 O
1872 H1872    -7.9210    -0.7710     2.6710 H
1873 H1873    -8.7840    -1.8320     2.0210 H
1874 O1874   -15.1760    -5.7370     0.8780 O
1875 H1875   -14.7390    -5.1940     1.5330 H
1876 H1876   -14.6910    -6.5630     0.8870 H
1877 O1877   -13.3650    -4.6170     5.9900 O
1878 H1878   -13.6660    -4.7410     6.8900 H
1879 H1879   -13.4720    -5.4770     5.5810 H
1880 O1880    -1.1410    -8.0930     3.1960 O
1881 H1881    -0.3790    -7.5230     3.3020 H
1882 H1882    -1.1250    -8.6600     3.9670 H
1883 O1883    -0.1350    -7.2380     8.0400 O
1884 H1884     0.2360    -8.0210     7.6340 H
1885 H1885     0.5060    -6.5490     7.8620 H
1886 O1886    -4.6910   -14.7750     1.6490 O
1887 H1887    -4.2730   -14.9620     0.8080 H
1888 H1888    -4.9970   -15.6270     1.9590 H
1889 O1889    -1.1920    -9.8630     5.3460 O
1890 H1890    -1.5680   -10.6300     4.9140 H
1891 H1891    -1.9220    -9.4800     5.8340 H
1892 O1892    -1.9170   -11.6370     8.6470 O
1893 H1893    -1.3930   -12.1310     8.0160 H
1894 H1894    -1.3310   -11.5020     9.3920 H
1895 O1895    -2.4270   -12.3800     4.5860 O
1896 H1896    -1.9310   -12.6130     5.3710 H
1897 H1897    -2.6250   -13.2180     4.1700 H
1898 O1898    -0.9980   -13.7440     7.1200 O
1899 H1899    -1.1080   -13.8980     8.0580 H
1900 H1900    -0.2380   -14.2710     6.8770 H
1901 O1901    -0.1090   -15.9130     0.3600 O
1902 H1902     0.8160   -16.0450     0.1520 H
1903 H1903    -0.1320   -15.8330     1.3140 H
1904 O1904    -0.0350   -15.1420     2.9860 O
1905 H1905    -0.8300   -15.2070     3.5150 H
1906 H1906     0.1690   -14.2070     2.9750 H
1907 O1907    -3.0940    -1.1030     6.9800 O
1908 H1908    -2.4980    -1.4240     6.3030 H
1909 H1909    -2.8360    -1.5750     7.7710 H
1910 O1910    -2.5420    -0.4530    10.8100 O
1911 H1911    -3.0020     0.2990    10.4360 H
1912 H1912    -3.1710    -1.1720    10.7510 H
1913 O1913   -12.1130    -2.1440     9.9850 O
1914 H1914   -11.5960    -2.7550     9.4590 H
1915 H1915   -11.4630    -1.6410    10.4760 H
1916 O1916    -9.3730    -1.2530    10.8110 O
1917 H1917    -9.0850    -1.5080     9.9350 H
1918 H1918    -8.8610    -1.8060    11.4020 H
1919 O1919    -3.6030   -16.8120     9.4360 O
1920 H1920    -3.1630   -16.8670     8.5880 H
1921 H1921    -3.8730   -15.8960     9.5070 H
1922 O1922   -10.2700   -15.0960     6.9030 O
1923 H1923   -11.0830   -15.4700     6.5620 H
1924 H1924    -9.7660   -15.8510     7.2050 H
1925 O1925   -14.4390   -16.6830     2.4530 O
1926 H1926   -13.9100   -17.4700     2.3230 H
1927 H1927   -13.8060   -16.0040     2.6860 H
1928 O1928   -12.2450   -16.9460     5.5070 O
1929 H1929   -12.8750   -17.6470     5.6740 H
1930 H1930   -12.7850   -16.1850     5.2910 H
1931 O1931   -13.2290    -0.4000     2.7290 O
1932 H1932   -12.4970    -0.6840     2.1820 H
1933 H1933   -12.9690    -0.6380     3.6190 H
1934 O1934   -14.0670    -4.2830     2.7340 O
1935 H1935   -14.6960    -3.8150     3.2820 H
1936 H1936   -13.9520    -5.1280     3.1680 H
1937 O1937    -8.4800    -8.4550    -9.2350 O
1938 H1938    -9.2560    -8.9350    -8.9450 H
1939 H1939    -7.8290    -9.1340    -9.4090 H
1940 O1940   -14.4640    -8.1430    -8.3580 O
1941 H1941   -15.2950    -8.3980    -7.9580 H
1942 H1942   -13.8560    -8.0720    -7.6220 H
1943 O1943    -4.4600    -4.0490   -10.4550 O
1944 H1944    -4.9220    -4.8200   -10.1260 H
1945 H1945    -3.6470    -4.0220    -9.9500 H
1946 O1946   -14.4840    -4.1090    -8.1620 O
1947 H1947   -14.1810    -4.9990    -8.3410 H
1948 H1948   -13.7390    -3.5520    -8.3900 H
1949 O1949    -8.2330    -1.7630   -10.8350 O
1950 H1950    -8.8520    -1.3070   -11.4050 H
1951 H1951    -7.3780    -1.6080   -11.2360 H
1952 O1952    -9.0400    -5.7790    -9.2280 O
1953 H1953    -9.1090    -6.7200    -9.3890 H
1954 H1954    -8.2780    -5.6890    -8.6560 H
1955 O1955    -8.0090   -12.9720    -9.0010 O
1956 H1956    -7.6330   -13.8450    -9.1140 H
1957 H1957    -8.1070   -12.6360    -9.8920 H
1958 O1958   -12.0380   -11.6310    -9.2070 O
1959 H1959   -11.5300   -11.1330    -8.5660 H
1960 H1960   -11.5060   -12.4070    -9.3830 H
1961 O1961     0.0630   -13.4600    -5.5040 O
1962 H1962    -0.6410   -13.0720    -6.0220 H
1963 H1963     0.3290   -12.7650    -4.9020 H
1964 O1964   -13.7540   -16.9910    -4.9410 O
1965 H1965   -13.7520   -16.4740    -5.7460 H
1966 H1966   -14.5840   -17.4680    -4.9640 H
1967 O1967   -12.5040    -7.3510    -6.7630 O
1968 H1968   -12.8370    -6.7250    -6.1210 H
1969 H1969   -12.3270    -6.8250    -7.5430 H
1970 O1970    -3.9900   -13.5370    -9.2960 O
1971 H1971    -4.6950   -13.2480    -8.7150 H
1972 H1972    -3.6290   -12.7270    -9.6560 H
1973 O1973   -14.0730   -15.2800    -6.9340 O
1974 H1974   -13.7310   -14.4360    -7.2280 H
1975 H1975   -15.0110   -15.1320    -6.8170 H
1976 O1976   -13.2920    -5.3830    -4.9480 O
1977 H1977   -12.6750    -4.7080    -5.2300 H
1978 H1978   -14.1530    -4.9750    -5.0400 H
1979 O1979    -2.3740    -3.9190    -7.0330 O
1980 H1980    -3.0580    -3.2490    -7.0410 H
1981 H1981    -1.8350    -3.7210    -7.7980 H
1982 O1982    -0.9220   -14.0910    -8.9050 O
1983 H1983    -1.8690   -14.0580    -8.7730 H
1984 H1984    -0.5970   -13.2780    -8.5200 H
1985 O1985    -4.8380    -2.0750    -8.3180 O
1986 H1986    -4.8260    -2.4790    -9.1860 H
1987 H1987    -5.3910    -1.3000    -8.4220 H
1988 O1988    -5.4400    -7.1720    -6.9900 O
1989 H1989    -5.0230    -7.3860    -7.8250 H
1990 H1990    -4.7160    -6.9150    -6.4190 H
1991 O1991    -1.4940    -8.7730    -6.8980 O
1992 H1992    -2.3220    -8.7040    -7.3730 H
1993 H1993    -0.8990    -8.1880    -7.3670 H
1994 O1994    -4.5290   -11.9860    -5.9530 O
1995 H1995    -4.9420   -11.1610    -5.6990 H
1996 H1996    -5.2620   -12.5720    -6.1450 H
1997 O1997   -12.3960    -9.2000   -11.0910 O
1998 H1998   -12.8000    -9.9130   -11.5870 H
1999 H1999   -12.3100    -9.5450   -10.2020 H
2000 O2000   -11.9280    -5.5140    -8.9270 O
2001 H2001   -12.2250    -6.1190    -9.6060 H
2002 H2002   -10.9780    -5.4760    -9.0380 H
2003 O2003   -13.6830   -12.4260    -7.3110 O
2004 H2004   -13.1320   -12.3160    -8.0860 H
2005 H2005   -13.1690   -12.0520    -6.5960 H
2006 O2006    -3.8390    -1.9400    -5.2650 O
2007 H2007    -4.3160    -1.1330    -5.4580 H
2008 H2008    -4.5230    -2.5930    -5.1120 H
2009 O2009   -12.8360    -5.7750    -2.2760 O
2010 H2010   -13.7330    -5.5510    -2.0290 H
2011 H2011   -12.8110    -5.6520    -3.2250 H
2012 O2012   -14.0090    -8.9040    -3.7010 O
2013 H2013   -14.1480    -8.0320    -3.3320 H
2014 H2014   -14.8910    -9.2470    -3.8460 H
2015 O2015   -12.2110    -2.9620    -1.4920 O
2016 H2016   -12.2390    -2.5580    -2.3590 H
2017 H2017   -12.3740    -3.8910    -1.6550 H
2018 O2018    -6.9940    -1.2850    -4.4660 O
2019 H2019    -6.4800    -1.3740    -3.6640 H
2020 H2020    -7.8380    -0.9390    -4.1730 H
2021 O2021    -1.0040   -12.9350    -2.0710 O
2022 H2022    -1.6190   -12.4270    -2.5990 H
2023 H2023    -1.3240   -13.8350    -2.1280 H
2024 O2024   -13.2290   -16.9620   -10.2080 O
2025 H2025   -13.6720   -16.1810   -10.5400 H
2026 H2026   -12.6710   -16.6390    -9.5010 H
2027 O2027    -8.9420   -14.0950    -4.6050 O
2028 H2028    -9.4040   -13.8870    -3.7930 H
2029 H2029    -9.3440   -14.9100    -4.9070 H
2030 O2030    -3.9420   -12.8750    -3.4750 O
2031 H2031    -4.7920   -13.1740    -3.1540 H
2032 H2032    -4.1020   -12.6300    -4.3860 H
2033 O2033    -6.8470   -11.3740    -1.3750 O
2034 H2034    -6.5220   -12.2080    -1.7150 H
2035 H2035    -6.0590   -10.8520    -1.2270 H
2036 O2036   -11.1920   -16.4180    -8.3490 O
2037 H2037   -10.8940   -15.5110    -8.4300 H
2038 H2038   -10.6430   -16.9060    -8.9630 H
2039 O2039   -10.9980   -10.9400    -1.8140 O
2040 H2040   -11.0940   -11.8810    -1.9640 H
2041 H2041   -10.1550   -10.7190    -2.2090 H
2042 O2042    -9.2920   -14.4460    -0.5910 O
2043 H2043    -9.9830   -14.6380     0.0440 H
2044 H2044    -8.5490   -14.1620    -0.0580 H
2045 O2045    -7.0160   -10.6060    -7.7550 O
2046 H2046    -7.7480   -10.0970    -7.4060 H
2047 H2047    -7.4140   -11.4230    -8.0570 H
2048 O2048   -10.5780   -13.9300    -9.3500 O
2049 H2049   -10.5750   -14.3710   -10.2000 H
2050 H2050    -9.6830   -13.6090    -9.2430 H
2051 O2051    -6.5530   -15.1520    -8.3430 O
2052 H2052    -6.5360   -14.7010    -7.4990 H
2053 H2053    -6.8020   -16.0520    -8.1300 H
2054 O2054   -10.2780    -9.8700    -7.6040 O
2055 H2055    -9.9110   -10.3440    -6.8580 H
2056 H2056   -10.4670    -8.9960    -7.2630 H
2057 O2057   -12.4880   -10.8290    -5.2850 O
2058 H2058   -12.7920    -9.9500    -5.0600 H
2059 H2059   -11.5330   -10.7690    -5.2500 H
2060 O2060    -3.2010    -7.6270    -8.8960 O
2061 H2061    -2.4810    -7.1310    -9.2860 H
2062 H2062    -3.4020    -8.3050    -9.5410 H
2063 O2063   -13.9160    -6.9550   -11.0510 O
2064 H2064   -13.3980    -7.7580   -11.1050 H
2065 H2065   -14.3670    -7.0170   -10.2090 H
2066 O2066   -13.2300    -9.5310    -1.2540 O
2067 H2067   -13.5300    -9.3850    -2.1510 H
2068 H2068   -12.4590   -10.0900    -1.3470 H
2069 O2069    -7.8870    -4.7340    -3.2590 O
2070 H2070    -7.8730    -5.6660    -3.4770 H
2071 H2071    -8.5950    -4.6480    -2.6200 H
2072 O2072    -6.1460    -6.3670   -10.4130 O
2073 H2073    -5.7940    -6.9640   -11.0730 H
2074 H2074    -7.0300    -6.6920   -10.2430 H
2075 O2075    -8.4540    -3.0920    -6.1650 O
2076 H2076    -7.8090    -2.8860    -5.4870 H
2077 H2077    -8.0910    -3.8530    -6.6180 H
2078 O2078    -7.1800    -5.0890    -7.4470 O
2079 H2079    -6.5380    -5.7890    -7.3340 H
2080 H2080    -6.6560    -4.3090    -7.6270 H
2081 O2081    -5.4070    -4.2890    -4.2430 O
2082 H2082    -5.0710    -3.7030    -3.5650 H
2083 H2083    -6.3270    -4.4200    -4.0130 H
2084 O2084    -9.5780    -4.2400    -1.0740 O
2085 H2085    -9.8980    -4.9590    -0.5300 H
2086 H2086   -10.2520    -3.5650    -1.0010 H
2087 O2087    -6.3620   -14.0070    -5.7110 O
2088 H2088    -5.9940   -14.8280    -5.3830 H
2089 H2089    -7.2230   -13.9470    -5.2950 H
2090 O2090    -9.4020   -11.3530    -5.4870 O
2091 H2091    -8.9040   -10.8790    -4.8220 H
2092 H2092    -9.2600   -12.2770    -5.2800 H
2093 O2093    -2.1960   -15.1370    -4.6440 O
2094 H2094    -2.6980   -14.3960    -4.3050 H
2095 H2095    -1.3800   -14.7480    -4.9600 H
2096 O2096    -3.9030    -9.8930   -11.1980 O
2097 H2097    -4.8440    -9.8780   -11.0230 H
2098 H2098    -3.5890   -10.6800   -10.7520 H
2099 O2099    -1.9010    -2.7220    -9.5230 O
2100 H2100    -1.7760    -1.8990    -9.0500 H
2101 H2101    -1.0340    -2.9330    -9.8700 H
2102 O2102   -14.4290    -0.6290    -9.8510 O
2103 H2103   -13.6930    -1.1780    -9.5800 H
2104 H2104   -14.0450     0.2360    -9.9900 H
2105 O2105   -10.6500    -7.5500    -2.1850 O
2106 H2106   -11.4150    -6.9820    -2.2700 H
2107 H2107   -10.4680    -7.8430    -3.0780 H
2108 O2108   -13.7310   -12.2350    -2.8560 O
2109 H2109   -14.2610   -12.7260    -3.4840 H
2110 H2110   -13.0620   -11.8070    -3.3900 H
2111 O2111   -13.2430   -15.2690    -2.7770 O
2112 H2112   -13.3380   -15.8870    -3.5010 H
2113 H2113   -13.8240   -14.5420    -3.0040 H
2114 O2114   -10.4770   -16.7120    -5.7440 O
2115 H2115   -10.9250   -16.6890    -6.5890 H
2116 H2116   -11.1110   -17.1100    -5.1470 H
2117 O2117   -10.0710    -7.8160    -5.1230 O
2118 H2118    -9.6520    -6.9730    -5.2950 H
2119 H2119   -10.9900    -7.6790    -5.3520 H
2120 O2120    -7.7350   -10.0850    -3.7390 O
2121 H2121    -7.6150   -10.6800    -2.9990 H
2122 H2122    -6.8750   -10.0480    -4.1590 H
2123 O2123    -5.3960    -9.5310    -5.1630 O
2124 H2124    -5.9230    -9.0070    -5.7660 H
2125 H2125    -5.0530    -8.8980    -4.5320 H
2126 O2126   -12.2210    -1.5110    -4.0070 O
2127 H2127   -12.7580    -0.7860    -4.3260 H
2128 H2128   -11.9670    -1.9880    -4.7970 H
2129 O2129   -10.9680   -13.5420    -2.4810 O
2130 H2130   -10.3780   -13.8510    -1.7930 H
2131 H2131   -11.7860   -14.0140    -2.3250 H
2132 O2132    -6.1490   -13.9260    -2.2480 O
2133 H2133    -6.8370   -14.5880    -2.3130 H
2134 H2134    -5.4280   -14.3720    -1.8030 H
2135 O2135    -9.3640    -0.2760    -3.7480 O
2136 H2136    -9.4380     0.6280    -3.4410 H
2137 H2137   -10.2660    -0.5950    -3.7760 H
2138 O2138    -0.1350    -7.2380   -10.7340 O
2139 H2139     0.2360    -8.0210   -11.1410 H
2140 H2140     0.5060    -6.5490   -10.9130 H
2141 O2141    -3.1510    -5.8540    -5.3210 O
2142 H2142    -3.9650    -5.4250    -5.0590 H
2143 H2143    -2.7440    -5.2430    -5.9340 H
2144 O2144    -1.8020   -10.7160    -3.7940 O
2145 H2145    -2.0340   -10.9440    -4.6950 H
2146 H2146    -1.5420    -9.7960    -3.8400 H
2147 O2147    -3.3630   -15.4900    -1.0160 O
2148 H2148    -2.4860   -15.4820    -0.6330 H
2149 H2149    -3.3510   -16.2270    -1.6270 H
2150 O2150    -1.9170   -11.6370   -10.1280 O
2151 H2151    -1.3930   -12.1310   -10.7590 H
2152 H2152    -1.3310   -11.5020    -9.3830 H
2153 O2153    -1.7380   -11.5530    -6.6060 O
2154 H2154    -2.6880   -11.5870    -6.4910 H
2155 H2155    -1.5570   -10.6430    -6.8410 H
2156 O2156   -15.1870    -4.6710    -1.6450 O
2157 H2157   -15.2300    -5.0410    -0.7640 H
2158 H2158   -15.0560    -3.7330    -1.5050 H
2159 O2159   -11.4870    -3.1150    -6.0440 O
2160 H2160   -11.7280    -2.8470    -6.9310 H
2161 H2161   -10.5460    -2.9440    -5.9890 H
2162 O2162    -9.2810   -16.6520    -2.2890 O
2163 H2163    -9.3420   -16.0590    -1.5390 H
2164 H2164    -8.3410   -16.7590    -2.4340 H
2165 O2165    -6.6440   -16.9950    -2.6490 O
2166 H2166    -6.0300   -16.6770    -3.3110 H
2167 H2167    -6.0990   -17.4800    -2.0300 H
2168 O2168    -0.2260    -1.0950    -5.2430 O
2169 H2169    -0.7200    -0.6980    -5.9610 H
2170 H2170    -0.8350    -1.7200    -4.8500 H
2171 O2171    -4.9960   -16.2240    -4.9380 O
2172 H2172    -5.3240   -17.0390    -5.3180 H
2173 H2173    -4.0480   -16.2670    -5.0620 H
2174 O2174    -2.5420    -0.4530    -7.9650 O
2175 H2175    -3.0020     0.2990    -8.3390 H
2176 H2176    -3.1710    -1.1720    -8.0230 H
2177 O2177   -12.1130    -2.1440    -8.7900 O
2178 H2178   -11.5960    -2.7550    -9.3150 H
2179 H2179   -11.4630    -1.6410    -8.2990 H
2180 O2180    -9.3730    -1.2530    -7.9630 O
2181 H2181    -9.0850    -1.5080    -8.8400 H
2182 H2182    -8.8610    -1.8060    -7.3720 H
2183 O2183    -3.6030   -16.8120    -9.3380 O
2184 H2184    -3.1630   -16.8670   -10.1860 H
2185 H2185    -3.8730   -15.8960    -9.2670 H
2186 O2186    -9.3060    -0.3320    -0.5960 O
2187 H2187    -8.3790    -0.5670    -0.5530 H
2188 H2188    -9.3210     0.4950    -1.0770 H
@<TRIPOS>BOND
1 1 2 1
2 2 3 1
3 2 4 1
4 2 5 1
5 5 6 2
6 5 7 Ar
7 7 8 1
8 7 9 1
9 9 10 1
10 9 11 1
11 9 15 1
12 11 12 1
13 11 13 1
14 11 14 1
15 15 16 2
16 15 17 1
17 17 18 1
18 17 19 1
19 19 20 1
20 19 21 1
21 19 25 1
22 21 22 1
23 21 23 1
24 21 24 1
25 25 26 2
26 25 27 1
27 27 28 1
28 27 29 1
29 29 30 1
30 29 31 1
31 29 35 1
32 31 32 1
33 31 33 1
34 31 34 1
35 35 36 2
36 35 37 1
37 37 38 1
38 37 39 1
39 39 40 1
40 39 41 1
41 39 45 1
42 41 42 1
43 41 43 1
44 41 44 1
45 45 46 2
46 45 47 Ar
47 47 48 1
48 47 49 1
49 49 51 1
50 49 52 1
51 49 50 1
52 53 54 1
53 53 55 1
54 56 58 1
55 56 57 1
56 59 60 1
57 59 61 1
58 62 63 1
59 62 64 1
60 65 66 1
61 65 67 1
62 68 70 1
63 68 69 1
64 71 72 1
65 71 73 1
66 74 75 1
67 74 76 1
68 77 79 1
69 77 78 1
70 80 81 1
71 80 82 1
72 83 84 1
73 83 85 1
74 86 87 1
75 86 88 1
76 89 91 1
77 89 90 1
78 92 93 1
79 92 94 1
80 95 97 1
81 95 96 1
82 98 99 1
83 98 100 1
84 101 102 1
85 101 103 1
86 104 105 1
87 104 106 1
88 107 108 1
89 107 109 1
90 110 111 1
91 110 112 1
92 113 114 1
93 113 115 1
94 116 117 1
95 116 118 1
96 119 120 1
97 119 121 1
98 122 123 1
99 122 124 1
100 125 126 1
101 125 127 1
102 128 130 1
103 128 129 1
104 131 132 1
105 131 133 1
106 134 135 1
107 134 136 1
108 137 138 1
109 137 139 1
110 140 141 1
111 140 142 1
112 143 144 1
113 143 145 1
114 146 147 1
115 146 148 1
116 149 151 1
117 149 150 1
118 152 153 1
119 152 154 1
120 155 156 1
121 155 157 1
122 158 159 1
123 158 160 1
124 161 162 1
125 161 163 1
126 164 165 1
127 164 166 1
128 167 168 1
129 167 169 1
130 170 171 1
131 170 172 1
132 173 174 1
133 173 175 1
134 176 177 1
135 176 178 1
136 179 181 1
137 179 180 1
138 182 183 1
139 182 184 1
140 185 186 1
141 185 187 1
142 188 189 1
143 188 190 1
144 191 192 1
145 191 193 1
146 194 195 1
147 194 196 1
148 197 198 1
149 197 199 1
150 200 201 1
151 200 202 1
152 203 204 1
153 203 205 1
154 206 207 1
155 206 208 1
156 209 210 1
157 209 211 1
158 212 213 1
159 212 214 1
160 215 217 1
161 215 216 1
162 218 219 1
163 218 220 1
164 221 222 1
165 221 223 1
166 224 225 1
167 224 226 1
168 227 228 1
169 227 229 1
170 230 231 1
171 230 232 1
172 233 234 1
173 233 235 1
174 236 237 1
175 236 238 1
176 239 240 1
177 239 241 1
178 242 243 1
179 242 244 1
180 245 247 1
181 245 246 1
182 248 249 1
183 248 250 1
184 251 252 1
185 251 253 1
186 254 255 1
187 254 256 1
188 257 258 1
189 257 259 1
190 260 261 1
191 260 262 1
192 263 264 1
193 263 265 1
194 266 267 1
195 266 268 1
196 269 271 1
197 269 270 1
198 272 273 1
199 272 274 1
200 275 276 1
201 275 277 1
202 278 279 1
203 278 280 1
204 281 282 1
205 281 283 1
206 284 285 1
207 284 286 1
208 287 288 1
209 287 289 1
210 290 291 1
211 290 292 1
212 293 294 1
213 293 295 1
214 296 297 1
215 296 298 1
216 299 300 1
217 299 301 1
218 302 303 1
219 302 304 1
220 305 306 1
221 305 307 1
222 308 309 1
223 308 310 1
224 311 312 1
225 311 313 1
226 314 315 1
227 314 316 1
228 317 318 1
229 317 319 1
230 320 321 1
231 320 322 1
232 323 324 1
233 323 325 1
234 326 327 1
235 326 328 1
236 329 331 1
237 329 330 1
238 332 333 1
239 332 334 1
240 335 336 1
241 335 337 1
242 338 339 1
243 338 340 1
244 341 342 1
245 341 343 1
246 344 346 1
247 344 345 1
248 347 348 1
249 347 349 1
250 350 351 1
251 350 352 1
252 353 354 1
253 353 355 1
254 356 357 1
255 356 358 1
256 359 360 1
257 359 361 1
258 362 363 1
259 362 364 1
260 365 366 1
261 365 367 1
262 368 369 1
263 368 370 1
264 371 372 1
265 371 373 1
266 374 375 1
267 374 376 1
268 377 379 1
269 377 378 1
270 380 381 1
271 380 382 1
272 383 384 1
273 383 385 1
274 386 387 1
275 386 388 1
276 389 390 1
277 389 391 1
278 392 393 1
279 392 394 1
280 395 396 1
281 395 397 1
282 398 400 1
283 398 399 1
284 401 402 1
285 401 403 1
286 404 405 1
287 404 406 1
288 407 408 1
289 407 409 1
290 410 411 1
291 410 412 1
292 413 414 1
293 413 415 1
294 416 418 1
295 416 417 1
296 419 420 1
297 419 421 1
298 422 423 1
299 422 424 1
300 425 426 1
301 425 427 1
302 428 429 1
303 428 430 1
304 431 432 1
305 431 433 1
306 434 436 1
307 434 435 1
308 437 438 1
309 437 439 1
310 440 441 1
311 440 442 1
312 443 445 1
313 443 444 1
314 446 447 1
315 446 448 1
316 449 450 1
317 449 451 1
318 452 453 1
319 452 454 1
320 455 456 1
321 455 457 1
322 458 460 1
323 458 459 1
324 461 462 1
325 461 463 1
326 464 465 1
327 464 466 1
328 467 468 1
329 467 469 1
330 470 471 1
331 470 472 1
332 473 474 1
333 473 475 1
334 476 478 1
335 476 477 1
336 479 481 1
337 479 480 1
338 482 483 1
339 482 484 1
340 485 486 1
341 485 487 1
342 488 489 1
343 488 490 1
344 491 492 1
345 491 493 1
346 494 495 1
347 494 496 1
348 497 498 1
349 497 499 1
350 500 501 1
351 500 502 1
352 503 504 1
353 503 505 1
354 506 507 1
355 506 508 1
356 509 511 1
357 509 510 1
358 512 513 1
359 512 514 1
360 515 516 1
361 515 517 1
362 518 519 1
363 518 520 1
364 521 522 1
365 521 523 1
366 524 525 1
367 524 526 1
368 527 528 1
369 527 529 1
370 530 531 1
371 530 532 1
372 533 534 1
373 533 535 1
374 536 537 1
375 536 538 1
376 539 540 1
377 539 541 1
378 542 543 1
379 542 544 1
380 545 546 1
381 545 547 1
382 548 549 1
383 548 550 1
384 551 552 1
385 551 553 1
386 554 555 1
387 554 556 1
388 557 558 1
389 557 559 1
390 560 561 1
391 560 562 1
392 563 565 1
393 563 564 1
394 566 567 1
395 566 568 1
396 569 570 1
397 569 571 1
398 572 573 1
399 572 574 1
400 575 577 1
401 575 576 1
402 578 580 1
403 578 579 1
404 581 582 1
405 581 583 1
406 584 585 1
407 584 586 1
408 587 589 1
409 587 588 1
410 590 591 1
411 590 592 1
412 593 594 1
413 593 595 1
414 596 597 1
415 596 598 1
416 599 601 1
417 599 600 1
418 602 603 1
419 602 604 1
420 605 607 1
421 605 606 1
422 608 609 1
423 608 610 1
424 611 612 1
425 611 613 1
426 614 615 1
427 614 616 1
428 617 618 1
429 617 619 1
430 620 621 1
431 620 622 1
432 623 625 1
433 623 624 1
434 626 627 1
435 626 628 1
436 629 630 1
437 629 631 1
438 632 633 1
439 632 634 1
440 635 636 1
441 635 637 1
442 638 639 1
443 638 640 1
444 641 642 1
445 641 643 1
446 644 645 1
447 644 646 1
448 647 649 1
449 647 648 1
450 650 652 1
451 650 651 1
452 653 654 1
453 653 655 1
454 656 657 1
455 656 658 1
456 659 660 1
457 659 661 1
458 662 663 1
459 662 664 1
460 665 666 1
461 665 667 1
462 668 669 1
463 668 670 1
464 671 672 1
465 671 673 1
466 674 675 1
467 674 676 1
468 677 678 1
469 677 679 1
470 680 681 1
471 680 682 1
472 683 684 1
473 683 685 1
474 686 687 1
475 686 688 1
476 689 690 1
477 689 691 1
478 692 693 1
479 692 694 1
480 695 696 1
481 695 697 1
482 698 699 1
483 698 700 1
484 701 702 1
485 701 703 1
486 704 705 1
487 704 706 1
488 707 708 1
489 707 709 1
490 710 711 1
491 710 712 1
492 713 714 1
493 713 715 1
494 716 717 1
495 716 718 1
496 719 720 1
497 719 721 1
498 722 723 1
499 722 724 1
500 725 727 1
501 725 726 1
502 728 729 1
503 728 730 1
504 731 733 1
505 731 732 1
506 734 735 1
507 734 736 1
508 737 738 1
509 737 739 1
510 740 741 1
511 740 742 1
512 743 744 1
513 743 745 1
514 746 747 1
515 746 748 1
516 749 751 1
517 749 750 1
518 752 753 1
519 752 754 1
520 755 757 1
521 755 756 1
522 758 759 1
523 758 760 1
524 761 762 1
525 761 763 1
526 764 765 1
527 764 766 1
528 767 768 1
529 767 769 1
530 770 771 1
531 770 772 1
532 773 774 1
533 773 775 1
534 776 778 1
535 776 777 1
536 779 780 1
537 779 781 1
538 782 783 1
539 782 784 1
540 785 786 1
541 785 787 1
542 788 789 1
543 788 790 1
544 791 792 1
545 791 793 1
546 794 795 1
547 794 796 1
548 797 798 1
549 797 799 1
550 800 801 1
551 800 802 1
552 803 804 1
553 803 805 1
554 806 807 1
555 806 808 1
556 809 810 1
557 809 811 1
558 812 813 1
559 812 814 1
560 815 816 1
561 815 817 1
562 818 819 1
563 818 820 1
564 821 822 1
565 821 823 1
566 824 825 1
567 824 826 1
568 827 828 1
569 827 829 1
570 830 831 1
571 830 832 1
572 833 834 1
573 833 835 1
574 836 837 1
575 836 838 1
576 839 840 1
577 839 841 1
578 842 843 1
579 842 844 1
580 845 846 1
581 845 847 1
582 848 849 1
583 848 850 1
584 851 852 1
585 851 853 1
586 854 855 1
587 854 856 1
588 857 858 1
589 857 859 1
590 860 861 1
591 860 862 1
592 863 864 1
593 863 865 1
594 866 867 1
595 866 868 1
596 869 870 1
597 869 871 1
598 872 873 1
599 872 874 1
600 875 876 1
601 875 877 1
602 878 880 1
603 878 879 1
604 881 882 1
605 881 883 1
606 884 885 1
607 884 886 1
608 887 888 1
609 887 889 1
610 890 892 1
611 890 891 1
612 893 895 1
613 893 894 1
614 896 897 1
615 896 898 1
616 899 900 1
617 899 901 1
618 902 903 1
619 902 904 1
620 905 906 1
621 905 907 1
622 908 909 1
623 908 910 1
624 911 912 1
625 911 913 1
626 914 915 1
627 914 916 1
628 917 918 1
629 917 919 1
630 920 922 1
631 920 921 1
632 923 925 1
633 923 924 1
634 926 927 1
635 926 928 1
636 929 931 1
637 929 930 1
638 932 933 1
639 932 934 1
640 935 936 1
641 935 937 1
642 938 940 1
643 938 939 1
644 941 942 1
645 941 943 1
646 944 945 1
647 944 946 1
648 947 949 1
649 947 948 1
650 950 951 1
651 950 952 1
652 953 955 1
653 953 954 1
654 956 957 1
655 956 958 1
656 959 960 1
657 959 961 1
658 962 963 1
659 962 964 1
660 965 966 1
661 965 967 1
662 968 969 1
663 968 970 1
664 971 972 1
665 971 973 1
666 974 975 1
667 974 976 1
668 977 978 1
669 977 979 1
670 980 981 1
671 980 982 1
672 983 984 1
673 983 985 1
674 986 987 1
675 986 988 1
676 989 990 1
677 989 991 1
678 992 993 1
679 992 994 1
680 995 996 1
681 995 997 1
682 998 999 1
683 998 1000 1
684 1001 1002 1
685 1001 1003 1
686 1004 1005 1
687 1004 1006 1
688 1007 1008 1
689 1007 1009 1
690 1010 1011 1
691 1010 1012 1
692 1013 1014 1
693 1013 1015 1
694 1016 1018 1
695 1016 1017 1
696 1019 1020 1
697 1019 1021 1
698 1022 1023 1
699 1022 1024 1
700 1025 1026 1
701 1025 1027 1
702 1028 1029 1
703 1028 1030 1
704 1031 1032 1
705 1031 1033 1
706 1034 1035 1
707 1034 1036 1
708 1037 1039 1
709 1037 1038 1
710 1040 1041 1
711 1040 1042 1
712 1043 1044 1
713 1043 1045 1
714 1046 1048 1
715 1046 1047 1
716 1049 1050 1
717 1049 1051 1
718 1052 1053 1
719 1052 1054 1
720 1055 1056 1
721 1055 1057 1
722 1058 1059 1
723 1058 1060 1
724 1061 1062 1
725 1061 1063 1
726 1064 1065 1
727 1064 1066 1
728 1067 1068 1
729 1067 1069 1
730 1070 1071 1
731 1070 1072 1
732 1073 1074 1
733 1073 1075 1
734 1076 1077 1
735 1076 1078 1
736 1079 1080 1
737 1079 1081 1
738 1082 1083 1
739 1082 1084 1
740 1085 1086 1
741 1085 1087 1
742 1088 1089 1
743 1088 1090 1
744 1091 1092 1
745 1091 1093 1
746 1094 1095 1
747 1094 1096 1
748 1097 1098 1
749 1097 1099 1
750 1100 1101 1
751 1100 1102 1
752 1103 1104 1
753 1103 1105 1
754 1106 1107 1
755 1106 1108 1
756 1109 1110 1
757 1109 1111 1
758 1112 1113 1
759 1112 1114 1
760 1115 1116 1
761 1115 1117 1
762 1118 1119 1
763 1118 1120 1
764 1121 1122 1
765 1121 1123 1
766 1124 1126 1
767 1124 1125 1
768 1127 1128 1
769 1127 1129 1
770 1130 1131 1
771 1130 1132 1
772 1133 1134 1
773 1133 1135 1
774 1136 1137 1
775 1136 1138 1
776 1139 1140 1
777 1139 1141 1
778 1142 1144 1
779 1142 1143 1
780 1145 1146 1
781 1145 1147 1
782 1148 1149 1
783 1148 1150 1
784 1151 1153 1
785 1151 1152 1
786 1154 1155 1
787 1154 1156 1
788 1157 1159 1
789 1157 1158 1
790 1160 1161 1
791 1160 1162 1
792 1163 1164 1
793 1163 1165 1
794 1166 1167 1
795 1166 1168 1
796 1169 1170 1
797 1169 1171 1
798 1172 1173 1
799 1172 1174 1
800 1175 1176 1
801 1175 1177 1
802 1178 1179 1
803 1178 1180 1
804 1181 1182 1
805 1181 1183 1
806 1184 1185 1
807 1184 1186 1
808 1187 1188 1
809 1187 1189 1
810 1190 1192 1
811 1190 1191 1
812 1193 1194 1
813 1193 1195 1
814 1196 1197 1
815 1196 1198 1
816 1199 1200 1
817 1199 1201 1
818 1202 1204 1
819 1202 1203 1
820 1205 1206 1
821 1205 1207 1
822 1208 1209 1
823 1208 1210 1
824 1211 1212 1
825 1211 1213 1
826 1214 1215 1
827 1214 1216 1
828 1217 1218 1
829 1217 1219 1
830 1220 1221 1
831 1220 1222 1
832 1223 1224 1
833 1223 1225 1
834 1226 1228 1
835 1226 1227 1
836 1229 1230 1
837 1229 1231 1
838 1232 1233 1
839 1232 1234 1
840 1235 1237 1
841 1235 1236 1
842 1238 1239 1
843 1238 1240 1
844 1241 1242 1
845 1241 1243 1
846 1244 1245 1
847 1244 1246 1
848 1247 1248 1
849 1247 1249 1
850 1250 1251 1
851 1250 1252 1
852 1253 1254 1
853 1253 1255 1
854 1256 1258 1
855 1256 1257 1
856 1259 1260 1
857 1259 1261 1
858 1262 1263 1
859 1262 1264 1
860 1265 1266 1
861 1265 1267 1
862 1268 1269 1
863 1268 1270 1
864 1271 1273 1
865 1271 1272 1
866 1274 1276 1
867 1274 1275 1
868 1277 1278 1
869 1277 1279 1
870 1280 1281 1
871 1280 1282 1
872 1283 1284 1
873 1283 1285 1
874 1286 1287 1
875 1286 1288 1
876 1289 1291 1
877 1289 1290 1
878 1292 1293 1
879 1292 1294 1
880 1295 1296 1
881 1295 1297 1
882 1298 1299 1
883 1298 1300 1
884 1301 1303 1
885 1301 1302 1
886 1304 1305 1
887 1304 1306 1
888 1307 1308 1
889 1307 1309 1
890 1310 1311 1
891 1310 1312 1
892 1313 1314 1
893 1313 1315 1
894 1316 1318 1
895 1316 1317 1
896 1319 1320 1
897 1319 1321 1
898 1322 1323 1
899 1322 1324 1
900 1325 1326 1
901 1325 1327 1
902 1328 1329 1
903 1328 1330 1
904 1331 1332 1
905 1331 1333 1
906 1334 1335 1
907 1334 1336 1
908 1337 1338 1
909 1337 1339 1
910 1340 1341 1
911 1340 1342 1
912 1343 1344 1
913 1343 1345 1
914 1346 1347 1
915 1346 1348 1
916 1349 1350 1
917 1349 1351 1
918 1352 1354 1
919 1352 1353 1
920 1355 1356 1
921 1355 1357 1
922 1358 1359 1
923 1358 1360 1
924 1361 1362 1
925 1361 1363 1
926 1364 1365 1
927 1364 1366 1
928 1367 1368 1
929 1367 1369 1
930 1370 1371 1
931 1370 1372 1
932 1373 1374 1
933 1373 1375 1
934 1376 1377 1
935 1376 1378 1
936 1379 1380 1
937 1379 1381 1
938 1382 1383 1
939 1382 1384 1
940 1385 1387 1
941 1385 1386 1
942 1388 1389 1
943 1388 1390 1
944 1391 1392 1
945 1391 1393 1
946 1394 1395 1
947 1394 1396 1
948 1397 1398 1
949 1397 1399 1
950 1400 1401 1
951 1400 1402 1
952 1403 1404 1
953 1403 1405 1
954 1406 1407 1
955 1406 1408 1
956 1409 1410 1
957 1409 1411 1
958 1412 1413 1
959 1412 1414 1
960 1415 1416 1
961 1415 1417 1
962 1418 1420 1
963 1418 1419 1
964 1421 1422 1
965 1421 1423 1
966 1424 1425 1
967 1424 1426 1
968 1427 1428 1
969 1427 1429 1
970 1430 1431 1
971 1430 1432 1
972 1433 1434 1
973 1433 1435 1
974 1436 1437 1
975 1436 1438 1
976 1439 1441 1
977 1439 1440 1
978 1442 1443 1
979 1442 1444 1
980 1445 1446 1
981 1445 1447 1
982 1448 1449 1
983 1448 1450 1
984 1451 1452 1
985 1451 1453 1
986 1454 1455 1
987 1454 1456 1
988 1457 1458 1
989 1457 1459 1
990 1460 1461 1
991 1460 1462 1
992 1463 1464 1
993 1463 1465 1
994 1466 1467 1
995 1466 1468 1
996 1469 1470 1
997 1469 1471 1
998 1472 1474 1
999 1472 1473 1
1000 1475 1476 1
1001 1475 1477 1
1002 1478 1480 1
1003 1478 1479 1
1004 1481 1482 1
1005 1481 1483 1
1006 1484 1485 1
1007 1484 1486 1
1008 1487 1488 1
1009 1487 1489 1
1010 1490 1491 1
1011 1490 1492 1
1012 1493 1494 1
1013 1493 1495 1
1014 1496 1497 1
1015 1496 1498 1
1016 1499 1501 1
1017 1499 1500 1
1018 1502 1503 1
1019 1502 1504 1
1020 1505 1506 1
1021 1505 1507 1
1022 1508 1509 1
1023 1508 1510 1
1024 1511 1512 1
1025 1511 1513 1
1026 1514 1516 1
1027 1514 1515 1
1028 1517 1518 1
1029 1517 1519 1
1030 1520 1521 1
1031 1520 1522 1
1032 1523 1524 1
1033 1523 1525 1
1034 1526 1527 1
1035 1526 1528 1
1036 1529 1530 1
1037 1529 1531 1
1038 1532 1534 1
1039 1532 1533 1
1040 1535 1536 1
1041 1535 1537 1
1042 1538 1539 1
1043 1538 1540 1
1044 1541 1543 1
1045 1541 1542 1
1046 1544 1546 1
1047 1544 1545 1
1048 1547 1548 1
1049 1547 1549 1
1050 1550 1552 1
1051 1550 1551 1
1052 1553 1554 1
1053 1553 1555 1
1054 1556 1558 1
1055 1556 1557 1
1056 1559 1560 1
1057 1559 1561 1
1058 1562 1563 1
1059 1562 1564 1
1060 1565 1566 1
1061 1565 1567 1
1062 1568 1569 1
1063 1568 1570 1
1064 1571 1572 1
1065 1571 1573 1
1066 1574 1576 1
1067 1574 1575 1
1068 1577 1578 1
1069 1577 1579 1
1070 1580 1581 1
1071 1580 1582 1
1072 1583 1585 1
1073 1583 1584 1
1074 1586 1587 1
1075 1586 1588 1
1076 1589 1590 1
1077 1589 1591 1
1078 1592 1593 1
1079 1592 1594 1
1080 1595 1596 1
1081 1595 1597 1
1082 1598 1599 1
1083 1598 1600 1
1084 1601 1602 1
1085 1601 1603 1
1086 1604 1605 1
1087 1604 1606 1
1088 1607 1608 1
1089 1607 1609 1
1090 1610 1612 1
1091 1610 1611 1
1092 1613 1614 1
1093 1613 1615 1
1094 1616 1617 1
1095 1616 1618 1
1096 1619 1620 1
1097 1619 1621 1
1098 1622 1623 1
1099 1622 1624 1
1100 1625 1626 1
1101 1625 1627 1
1102 1628 1629 1
1103 1628 1630 1
1104 1631 1632 1
1105 1631 1633 1
1106 1634 1635 1
1107 1634 1636 1
1108 1637 1638 1
1109 1637 1639 1
1110 1640 1641 1
1111 1640 1642 1
1112 1643 1644 1
1113 1643 1645 1
1114 1646 1647 1
1115 1646 1648 1
1116 1649 1650 1
1117 1649 1651 1
1118 1652 1653 1
1119 1652 1654 1
1120 1655 1656 1
1121 1655 1657 1
1122 1658 1659 1
1123 1658 1660 1
1124 1661 1662 1
1125 1661 1663 1
1126 1664 1665 1
1127 1664 1666 1
1128 1667 1669 1
1129 1667 1668 1
1130 1670 1671 1
1131 1670 1672 1
1132 1673 1674 1
1133 1673 1675 1
1134 1676 1678 1
1135 1676 1677 1
1136 1679 1680 1
1137 1679 1681 1
1138 1682 1683 1
1139 1682 1684 1
1140 1685 1686 1
1141 1685 1687 1
1142 1688 1689 1
1143 1688 1690 1
1144 1691 1692 1
1145 1691 1693 1
1146 1694 1696 1
1147 1694 1695 1
1148 1697 1698 1
1149 1697 1699 1
1150 1700 1701 1
1151 1700 1702 1
1152 1703 1705 1
1153 1703 1704 1
1154 1706 1707 1
1155 1706 1708 1
1156 1709 1711 1
1157 1709 1710 1
1158 1712 1713 1
1159 1712 1714 1
1160 1715 1716 1
1161 1715 1717 1
1162 1718 1719 1
1163 1718 1720 1
1164 1721 1722 1
1165 1721 1723 1
1166 1724 1725 1
1167 1724 1726 1
1168 1727 1729 1
1169 1727 1728 1
1170 1730 1731 1
1171 1730 1732 1
1172 1733 1734 1
1173 1733 1735 1
1174 1736 1737 1
1175 1736 1738 1
1176 1739 1740 1
1177 1739 1741 1
1178 1742 1743 1
1179 1742 1744 1
1180 1745 1746 1
1181 1745 1747 1
1182 1748 1749 1
1183 1748 1750 1
1184 1751 1752 1
1185 1751 1753 1
1186 1754 1755 1
1187 1754 1756 1
1188 1757 1758 1
1189 1757 1759 1
1190 1760 1761 1
1191 1760 1762 1
1192 1763 1764 1
1193 1763 1765 1
1194 1766 1767 1
1195 1766 1768 1
1196 1769 1770 1
1197 1769 1771 1
1198 1772 1773 1
1199 1772 1774 1
1200 1775 1776 1
1201 1775 1777 1
1202 1778 1779 1
1203 1778 1780 1
1204 1781 1783 1
1205 1781 1782 1
1206 1784 1785 1
1207 1784 1786 1
1208 1787 1788 1
1209 1787 1789 1
1210 1790 1791 1
1211 1790 1792 1
1212 1793 1794 1
1213 1793 1795 1
1214 1796 1797 1
1215 1796 1798 1
1216 1799 1800 1
1217 1799 1801 1
1218 1802 1804 1
1219 1802 1803 1
1220 1805 1806 1
1221 1805 1807 1
1222 1808 1810 1
1223 1808 1809 1
1224 1811 1812 1
1225 1811 1813 1
1226 1814 1816 1
1227 1814 1815 1
1228 1817 1818 1
1229 1817 1819 1
1230 1820 1821 1
1231 1820 1822 1
1232 1823 1824 1
1233 1823 1825 1
1234 1826 1827 1
1235 1826 1828 1
1236 1829 1830 1
1237 1829 1831 1
1238 1832 1834 1
1239 1832 1833 1
1240 1835 1836 1
1241 1835 1837 1
1242 1838 1840 1
1243 1838 1839 1
1244 1841 1842 1
1245 1841 1843 1
1246 1844 1846 1
1247 1844 1845 1
1248 1847 1848 1
1249 1847 1849 1
1250 1850 1851 1
1251 1850 1852 1
1252 1853 1854 1
1253 1853 1855 1
1254 1856 1858 1
1255 1856 1857 1
1256 1859 1860 1
1257 1859 1861 1
1258 1862 1863 1
1259 1862 1864 1
1260 1865 1866 1
1261 1865 1867 1
1262 1868 1869 1
1263 1868 1870 1
1264 1871 1872 1
1265 1871 1873 1
1266 1874 1875 1
1267 1874 1876 1
1268 1877 1878 1
1269 1877 1879 1
1270 1880 1881 1
1271 1880 1882 1
1272 1883 1884 1
1273 1883 1885 1
1274 1886 1887 1
1275 1886 1888 1
1276 1889 1890 1
1277 1889 1891 1
1278 1892 1893 1
1279 1892 1894 1
1280 1895 1896 1
1281 1895 1897 1
1282 1898 1899 1
1283 1898 1900 1
1284 1901 1902 1
1285 1901 1903 1
1286 1904 1905 1
1287 1904 1906 1
1288 1907 1908 1
1289 1907 1909 1
1290 1910 1911 1
1291 1910 1912 1
1292 1913 1914 1
1293 1913 1915 1
1294 1916 1917 1
1295 1916 1918 1
1296 1919 1920 1
1297 1919 1921 1
1298 1922 1923 1
1299 1922 1924 1
1300 1925 1926 1
1301 1925 1927 1
1302 1928 1929 1
1303 1928 1930 1
1304 1931 1932 1
1305 1931 1933 1
1306 1934 1935 1
1307 1934 1936 1
1308 1937 1938 1
1309 1937 1939 1
1310 1940 1941 1
1311 1940 1942 1
1312 1943 1944 1
1313 1943 1945 1
1314 1946 1947 1
1315 1946 1948 1
1316 1949 1950 1
1317 1949 1951 1
1318 1952 1953 1
1319 1952 1954 1
1320 1955 1956 1
1321 1955 1957 1
1322 1958 1960 1
1323 1958 1959 1
1324 1961 1962 1
1325 1961 1963 1
1326 1964 1965 1
1327 1964 1966 1
1328 1967 1968 1
1329 1967 1969 1
1330 1970 1971 1
1331 1970 1972 1
1332 1973 1975 1
1333 1973 1974 1
1334 1976 1977 1
1335 1976 1978 1
1336 1979 1980 1
1337 1979 1981 1
1338 1982 1983 1
1339 1982 1984 1
1340 1985 1986 1
1341 1985 1987 1
1342 1988 1989 1
1343 1988 1990 1
1344 1991 1992 1
1345 1991 1993 1
1346 1994 1995 1
1347 1994 1996 1
1348 1997 1998 1
1349 1997 1999 1
1350 2000 2001 1
1351 2000 2002 1
1352 2003 2004 1
1353 2003 2005 1
1354 2006 2007 1
1355 2006 2008 1
1356 2009 2011 1
1357 2009 2010 1
1358 2012 2014 1
1359 2012 2013 1
1360 2015 2017 1
1361 2015 2016 1
1362 2018 2019 1
1363 2018 2020 1
1364 2021 2022 1
1365 2021 2023 1
1366 2024 2025 1
1367 2024 2026 1
1368 2027 2029 1
1369 2027 2028 1
1370 2030 2031 1
1371 2030 2032 1
1372 2033 2034 1
1373 2033 2035 1
1374 2036 2038 1
1375 2036 2037 1
1376 2039 2040 1
1377 2039 2041 1
1378 2042 2043 1
1379 2042 2044 1
1380 2045 2046 1
1381 2045 2047 1
1382 2048 2049 1
1383 2048 2050 1
1384 2051 2052 1
1385 2051 2053 1
1386 2054 2055 1
1387 2054 2056 1
1388 2057 2058 1
1389 2057 2059 1
1390 2060 2061 1
1391 2060 2062 1
1392 2063 2064 1
1393 2063 2065 1
1394 2066 2067 1
1395 2066 2068 1
1396 2069 2070 1
1397 2069 2071 1
1398 2072 2074 1
1399 2072 2073 1
1400 2075 2076 1
1401 2075 2077 1
1402 2078 2079 1
1403 2078 2080 1
1404 2081 2083 1
1405 2081 2082 1
1406 2084 2085 1
1407 2084 2086 1
1408 2087 2089 1
1409 2087 2088 1
1410 2090 2091 1
1411 2090 2092 1
1412 2093 2095 1
1413 2093 2094 1
1414 2096 2097 1
1415 2096 2098 1
1416 2099 2101 1
1417 2099 2100 1
1418 2102 2103 1
1419 2102 2104 1
1420 2105 2107 1
1421 2105 2106 1
1422 2108 2109 1
1423 2108 2110 1
1424 2111 2112 1
1425 2111 2113 1
1426 2114 2115 1
1427 2114 2116 1
1428 2117 2118 1
1429 2117 2119 1
1430 2120 2121 1
1431 2120 2122 1
1432 2123 2124 1
1433 2123 2125 1
1434 2126 2127 1
1435 2126 2128 1
1436 2129 2130 1
1437 2129 2131 1
1438 2132 2133 1
1439 2132 2134 1
1440 2135 2136 1
1441 2135 2137 1
1442 2138 2139 1
1443 2138 2140 1
1444 2141 2142 1
1445 2141 2143 1
1446 2144 2145 1
1447 2144 2146 1
1448 2147 2148 1
1449 2147 2149 1
1450 2150 2151 1
1451 2150 2152 1
1452 2153 2154 1
1453 2153 2155 1
1454 2156 2157 1
1455 2156 2158 1
1456 2159 2160 1
1457 2159 2161 1
1458 2162 2163 1
1459 2162 2164 1
1460 2165 2166 1
1461 2165 2167 1
1462 2168 2169 1
1463 2168 2170 1
1464 2171 2172 1
1465 2171 2173 1
1466 2174 2175 1
1467 2174 2176 1
1468 2177 2178 1
1469 2177 2179 1
1470 2180 2181 1
1471 2180 2182 1
1472 2183 2184 1
1473 2183 2185 1
1474 2186 2187 1
1475 2186 2188 1
